*SPEF "ieee 1481-1999"
*DESIGN "wrapped_frequency_counter"
*DATE "11:11:11 Fri 11 11, 1111"
*VENDOR "OpenRCX"
*PROGRAM "Parallel Extraction"
*VERSION "1.0"
*DESIGN_FLOW "NAME_SCOPE LOCAL" "PIN_CAP NONE"
*DIVIDER /
*DELIMITER :
*BUS_DELIMITER []
*T_UNIT 1 NS
*C_UNIT 1 PF
*R_UNIT 1 OHM
*L_UNIT 1 HENRY

*NAME_MAP
*1 active
*2 io_in[0]
*3 io_in[10]
*4 io_in[11]
*5 io_in[12]
*6 io_in[13]
*7 io_in[14]
*8 io_in[15]
*9 io_in[16]
*10 io_in[17]
*11 io_in[18]
*12 io_in[19]
*13 io_in[1]
*14 io_in[20]
*15 io_in[21]
*16 io_in[22]
*17 io_in[23]
*18 io_in[24]
*19 io_in[25]
*20 io_in[26]
*21 io_in[27]
*22 io_in[28]
*23 io_in[29]
*24 io_in[2]
*25 io_in[30]
*26 io_in[31]
*27 io_in[32]
*28 io_in[33]
*29 io_in[34]
*30 io_in[35]
*31 io_in[36]
*32 io_in[37]
*33 io_in[3]
*34 io_in[4]
*35 io_in[5]
*36 io_in[6]
*37 io_in[7]
*38 io_in[8]
*39 io_in[9]
*40 io_oeb[0]
*41 io_oeb[10]
*42 io_oeb[11]
*43 io_oeb[12]
*44 io_oeb[13]
*45 io_oeb[14]
*46 io_oeb[15]
*47 io_oeb[16]
*48 io_oeb[17]
*49 io_oeb[18]
*50 io_oeb[19]
*51 io_oeb[1]
*52 io_oeb[20]
*53 io_oeb[21]
*54 io_oeb[22]
*55 io_oeb[23]
*56 io_oeb[24]
*57 io_oeb[25]
*58 io_oeb[26]
*59 io_oeb[27]
*60 io_oeb[28]
*61 io_oeb[29]
*62 io_oeb[2]
*63 io_oeb[30]
*64 io_oeb[31]
*65 io_oeb[32]
*66 io_oeb[33]
*67 io_oeb[34]
*68 io_oeb[35]
*69 io_oeb[36]
*70 io_oeb[37]
*71 io_oeb[3]
*72 io_oeb[4]
*73 io_oeb[5]
*74 io_oeb[6]
*75 io_oeb[7]
*76 io_oeb[8]
*77 io_oeb[9]
*78 io_out[0]
*79 io_out[10]
*80 io_out[11]
*81 io_out[12]
*82 io_out[13]
*83 io_out[14]
*84 io_out[15]
*85 io_out[16]
*86 io_out[17]
*87 io_out[18]
*88 io_out[19]
*89 io_out[1]
*90 io_out[20]
*91 io_out[21]
*92 io_out[22]
*93 io_out[23]
*94 io_out[24]
*95 io_out[25]
*96 io_out[26]
*97 io_out[27]
*98 io_out[28]
*99 io_out[29]
*100 io_out[2]
*101 io_out[30]
*102 io_out[31]
*103 io_out[32]
*104 io_out[33]
*105 io_out[34]
*106 io_out[35]
*107 io_out[36]
*108 io_out[37]
*109 io_out[3]
*110 io_out[4]
*111 io_out[5]
*112 io_out[6]
*113 io_out[7]
*114 io_out[8]
*115 io_out[9]
*116 la1_data_in[0]
*117 la1_data_in[10]
*118 la1_data_in[11]
*119 la1_data_in[12]
*120 la1_data_in[13]
*121 la1_data_in[14]
*122 la1_data_in[15]
*123 la1_data_in[16]
*124 la1_data_in[17]
*125 la1_data_in[18]
*126 la1_data_in[19]
*127 la1_data_in[1]
*128 la1_data_in[20]
*129 la1_data_in[21]
*130 la1_data_in[22]
*131 la1_data_in[23]
*132 la1_data_in[24]
*133 la1_data_in[25]
*134 la1_data_in[26]
*135 la1_data_in[27]
*136 la1_data_in[28]
*137 la1_data_in[29]
*138 la1_data_in[2]
*139 la1_data_in[30]
*140 la1_data_in[31]
*141 la1_data_in[3]
*142 la1_data_in[4]
*143 la1_data_in[5]
*144 la1_data_in[6]
*145 la1_data_in[7]
*146 la1_data_in[8]
*147 la1_data_in[9]
*148 la1_data_out[0]
*149 la1_data_out[10]
*150 la1_data_out[11]
*151 la1_data_out[12]
*152 la1_data_out[13]
*153 la1_data_out[14]
*154 la1_data_out[15]
*155 la1_data_out[16]
*156 la1_data_out[17]
*157 la1_data_out[18]
*158 la1_data_out[19]
*159 la1_data_out[1]
*160 la1_data_out[20]
*161 la1_data_out[21]
*162 la1_data_out[22]
*163 la1_data_out[23]
*164 la1_data_out[24]
*165 la1_data_out[25]
*166 la1_data_out[26]
*167 la1_data_out[27]
*168 la1_data_out[28]
*169 la1_data_out[29]
*170 la1_data_out[2]
*171 la1_data_out[30]
*172 la1_data_out[31]
*173 la1_data_out[3]
*174 la1_data_out[4]
*175 la1_data_out[5]
*176 la1_data_out[6]
*177 la1_data_out[7]
*178 la1_data_out[8]
*179 la1_data_out[9]
*180 la1_oenb[0]
*181 la1_oenb[10]
*182 la1_oenb[11]
*183 la1_oenb[12]
*184 la1_oenb[13]
*185 la1_oenb[14]
*186 la1_oenb[15]
*187 la1_oenb[16]
*188 la1_oenb[17]
*189 la1_oenb[18]
*190 la1_oenb[19]
*191 la1_oenb[1]
*192 la1_oenb[20]
*193 la1_oenb[21]
*194 la1_oenb[22]
*195 la1_oenb[23]
*196 la1_oenb[24]
*197 la1_oenb[25]
*198 la1_oenb[26]
*199 la1_oenb[27]
*200 la1_oenb[28]
*201 la1_oenb[29]
*202 la1_oenb[2]
*203 la1_oenb[30]
*204 la1_oenb[31]
*205 la1_oenb[3]
*206 la1_oenb[4]
*207 la1_oenb[5]
*208 la1_oenb[6]
*209 la1_oenb[7]
*210 la1_oenb[8]
*211 la1_oenb[9]
*214 wb_clk_i
*215 _000_
*216 _001_
*217 _002_
*218 _003_
*219 _004_
*220 _005_
*221 _006_
*222 _007_
*223 _008_
*224 _009_
*225 _010_
*226 _011_
*227 _012_
*228 _013_
*229 _014_
*230 _015_
*231 _016_
*232 _017_
*233 _018_
*234 _019_
*235 _020_
*236 _021_
*237 _022_
*238 _023_
*239 _024_
*240 _025_
*241 _026_
*242 _027_
*243 _028_
*244 _029_
*245 _030_
*246 _031_
*247 _032_
*248 _033_
*249 _034_
*250 _035_
*251 _036_
*252 _037_
*253 _038_
*254 _039_
*255 _040_
*256 _041_
*257 _042_
*258 _043_
*259 _044_
*260 _045_
*261 _046_
*262 _047_
*263 _048_
*264 _049_
*265 _050_
*266 _051_
*267 _052_
*268 _053_
*269 _054_
*270 _055_
*271 _056_
*272 _057_
*273 _058_
*274 _059_
*275 _060_
*276 _061_
*277 _062_
*278 _063_
*279 _064_
*280 _065_
*281 _066_
*282 _067_
*283 _068_
*284 _069_
*285 _070_
*286 _071_
*287 _072_
*288 _073_
*289 _074_
*290 _075_
*291 _076_
*292 _077_
*293 _078_
*294 _079_
*295 _080_
*296 _081_
*297 _082_
*298 _083_
*299 _084_
*300 _085_
*301 _086_
*302 _087_
*303 _088_
*304 _089_
*305 _090_
*306 _091_
*307 _092_
*308 _093_
*309 _094_
*310 _095_
*311 _096_
*312 _097_
*313 _098_
*314 _099_
*315 _100_
*316 _101_
*317 _102_
*318 _103_
*319 _104_
*320 _105_
*321 _106_
*322 _107_
*323 _108_
*324 _109_
*325 _110_
*326 _111_
*327 _112_
*328 _113_
*329 _114_
*330 _115_
*331 _116_
*332 _117_
*333 _118_
*334 _119_
*335 _120_
*336 _121_
*337 _122_
*338 _123_
*339 _124_
*340 _125_
*341 _126_
*342 _127_
*343 _128_
*344 _129_
*345 _130_
*346 _131_
*347 _132_
*348 _133_
*349 _134_
*350 frequency_counter_0\.digit
*351 net1
*352 net10
*353 net100
*354 net101
*355 net102
*356 net103
*357 net104
*358 net105
*359 net106
*360 net107
*361 net108
*362 net11
*363 net12
*364 net13
*365 net14
*366 net15
*367 net16
*368 net17
*369 net18
*370 net19
*371 net2
*372 net20
*373 net21
*374 net22
*375 net23
*376 net24
*377 net25
*378 net26
*379 net27
*380 net28
*381 net29
*382 net3
*383 net30
*384 net31
*385 net32
*386 net33
*387 net34
*388 net35
*389 net36
*390 net37
*391 net38
*392 net39
*393 net4
*394 net40
*395 net41
*396 net42
*397 net43
*398 net44
*399 net45
*400 net46
*401 net47
*402 net48
*403 net49
*404 net5
*405 net50
*406 net51
*407 net52
*408 net53
*409 net54
*410 net55
*411 net56
*412 net57
*413 net58
*414 net59
*415 net6
*416 net60
*417 net61
*418 net62
*419 net63
*420 net64
*421 net65
*422 net66
*423 net67
*424 net68
*425 net69
*426 net7
*427 net70
*428 net71
*429 net72
*430 net73
*431 net74
*432 net75
*433 net76
*434 net77
*435 net78
*436 net79
*437 net8
*438 net80
*439 net81
*440 net82
*441 net83
*442 net84
*443 net85
*444 net86
*445 net87
*446 net88
*447 net89
*448 net9
*449 net90
*450 net91
*451 net92
*452 net93
*453 net94
*454 net95
*455 net96
*456 net97
*457 net98
*458 net99
*459 FILLER_0_106
*460 FILLER_0_11
*461 FILLER_0_113
*462 FILLER_0_136
*463 FILLER_0_141
*464 FILLER_0_163
*465 FILLER_0_167
*466 FILLER_0_17
*467 FILLER_0_190
*468 FILLER_0_197
*469 FILLER_0_220
*470 FILLER_0_225
*471 FILLER_0_24
*472 FILLER_0_248
*473 FILLER_0_253
*474 FILLER_0_276
*475 FILLER_0_281
*476 FILLER_0_3
*477 FILLER_0_304
*478 FILLER_0_312
*479 FILLER_0_324
*480 FILLER_0_329
*481 FILLER_0_335
*482 FILLER_0_358
*483 FILLER_0_386
*484 FILLER_0_414
*485 FILLER_0_421
*486 FILLER_0_443
*487 FILLER_0_447
*488 FILLER_0_449
*489 FILLER_0_472
*490 FILLER_0_477
*491 FILLER_0_50
*492 FILLER_0_500
*493 FILLER_0_508
*494 FILLER_0_78
*495 FILLER_10_11
*496 FILLER_10_121
*497 FILLER_10_133
*498 FILLER_10_139
*499 FILLER_10_141
*500 FILLER_10_15
*501 FILLER_10_153
*502 FILLER_10_165
*503 FILLER_10_177
*504 FILLER_10_183
*505 FILLER_10_195
*506 FILLER_10_197
*507 FILLER_10_209
*508 FILLER_10_221
*509 FILLER_10_233
*510 FILLER_10_245
*511 FILLER_10_251
*512 FILLER_10_253
*513 FILLER_10_265
*514 FILLER_10_27
*515 FILLER_10_277
*516 FILLER_10_289
*517 FILLER_10_29
*518 FILLER_10_3
*519 FILLER_10_301
*520 FILLER_10_307
*521 FILLER_10_309
*522 FILLER_10_315
*523 FILLER_10_327
*524 FILLER_10_339
*525 FILLER_10_347
*526 FILLER_10_352
*527 FILLER_10_365
*528 FILLER_10_377
*529 FILLER_10_389
*530 FILLER_10_401
*531 FILLER_10_41
*532 FILLER_10_413
*533 FILLER_10_419
*534 FILLER_10_421
*535 FILLER_10_433
*536 FILLER_10_445
*537 FILLER_10_457
*538 FILLER_10_469
*539 FILLER_10_475
*540 FILLER_10_477
*541 FILLER_10_489
*542 FILLER_10_501
*543 FILLER_10_513
*544 FILLER_10_53
*545 FILLER_10_65
*546 FILLER_10_77
*547 FILLER_10_83
*548 FILLER_10_85
*549 FILLER_10_97
*550 FILLER_11_104
*551 FILLER_11_113
*552 FILLER_11_125
*553 FILLER_11_137
*554 FILLER_11_149
*555 FILLER_11_161
*556 FILLER_11_167
*557 FILLER_11_169
*558 FILLER_11_181
*559 FILLER_11_193
*560 FILLER_11_205
*561 FILLER_11_217
*562 FILLER_11_223
*563 FILLER_11_225
*564 FILLER_11_237
*565 FILLER_11_249
*566 FILLER_11_261
*567 FILLER_11_273
*568 FILLER_11_279
*569 FILLER_11_281
*570 FILLER_11_293
*571 FILLER_11_3
*572 FILLER_11_305
*573 FILLER_11_31
*574 FILLER_11_317
*575 FILLER_11_329
*576 FILLER_11_335
*577 FILLER_11_337
*578 FILLER_11_349
*579 FILLER_11_361
*580 FILLER_11_373
*581 FILLER_11_385
*582 FILLER_11_391
*583 FILLER_11_393
*584 FILLER_11_405
*585 FILLER_11_417
*586 FILLER_11_429
*587 FILLER_11_43
*588 FILLER_11_441
*589 FILLER_11_447
*590 FILLER_11_449
*591 FILLER_11_461
*592 FILLER_11_473
*593 FILLER_11_485
*594 FILLER_11_497
*595 FILLER_11_503
*596 FILLER_11_505
*597 FILLER_11_513
*598 FILLER_11_55
*599 FILLER_11_57
*600 FILLER_11_69
*601 FILLER_11_81
*602 FILLER_11_9
*603 FILLER_11_93
*604 FILLER_12_109
*605 FILLER_12_121
*606 FILLER_12_13
*607 FILLER_12_133
*608 FILLER_12_139
*609 FILLER_12_141
*610 FILLER_12_153
*611 FILLER_12_165
*612 FILLER_12_177
*613 FILLER_12_189
*614 FILLER_12_195
*615 FILLER_12_197
*616 FILLER_12_209
*617 FILLER_12_221
*618 FILLER_12_233
*619 FILLER_12_245
*620 FILLER_12_25
*621 FILLER_12_251
*622 FILLER_12_253
*623 FILLER_12_265
*624 FILLER_12_277
*625 FILLER_12_289
*626 FILLER_12_29
*627 FILLER_12_3
*628 FILLER_12_301
*629 FILLER_12_307
*630 FILLER_12_309
*631 FILLER_12_321
*632 FILLER_12_333
*633 FILLER_12_345
*634 FILLER_12_357
*635 FILLER_12_363
*636 FILLER_12_365
*637 FILLER_12_377
*638 FILLER_12_389
*639 FILLER_12_401
*640 FILLER_12_41
*641 FILLER_12_413
*642 FILLER_12_419
*643 FILLER_12_421
*644 FILLER_12_426
*645 FILLER_12_438
*646 FILLER_12_450
*647 FILLER_12_462
*648 FILLER_12_474
*649 FILLER_12_477
*650 FILLER_12_489
*651 FILLER_12_501
*652 FILLER_12_513
*653 FILLER_12_53
*654 FILLER_12_65
*655 FILLER_12_77
*656 FILLER_12_83
*657 FILLER_12_85
*658 FILLER_12_9
*659 FILLER_12_97
*660 FILLER_13_105
*661 FILLER_13_111
*662 FILLER_13_116
*663 FILLER_13_128
*664 FILLER_13_15
*665 FILLER_13_150
*666 FILLER_13_162
*667 FILLER_13_169
*668 FILLER_13_181
*669 FILLER_13_193
*670 FILLER_13_205
*671 FILLER_13_217
*672 FILLER_13_223
*673 FILLER_13_225
*674 FILLER_13_237
*675 FILLER_13_249
*676 FILLER_13_261
*677 FILLER_13_27
*678 FILLER_13_273
*679 FILLER_13_279
*680 FILLER_13_281
*681 FILLER_13_293
*682 FILLER_13_3
*683 FILLER_13_305
*684 FILLER_13_317
*685 FILLER_13_329
*686 FILLER_13_335
*687 FILLER_13_337
*688 FILLER_13_349
*689 FILLER_13_361
*690 FILLER_13_373
*691 FILLER_13_385
*692 FILLER_13_39
*693 FILLER_13_391
*694 FILLER_13_393
*695 FILLER_13_405
*696 FILLER_13_417
*697 FILLER_13_444
*698 FILLER_13_449
*699 FILLER_13_461
*700 FILLER_13_473
*701 FILLER_13_485
*702 FILLER_13_497
*703 FILLER_13_503
*704 FILLER_13_508
*705 FILLER_13_51
*706 FILLER_13_55
*707 FILLER_13_57
*708 FILLER_13_69
*709 FILLER_13_81
*710 FILLER_13_93
*711 FILLER_14_105
*712 FILLER_14_11
*713 FILLER_14_129
*714 FILLER_14_136
*715 FILLER_14_141
*716 FILLER_14_153
*717 FILLER_14_165
*718 FILLER_14_17
*719 FILLER_14_177
*720 FILLER_14_189
*721 FILLER_14_195
*722 FILLER_14_197
*723 FILLER_14_209
*724 FILLER_14_221
*725 FILLER_14_233
*726 FILLER_14_245
*727 FILLER_14_25
*728 FILLER_14_251
*729 FILLER_14_253
*730 FILLER_14_265
*731 FILLER_14_277
*732 FILLER_14_289
*733 FILLER_14_29
*734 FILLER_14_3
*735 FILLER_14_301
*736 FILLER_14_307
*737 FILLER_14_309
*738 FILLER_14_321
*739 FILLER_14_333
*740 FILLER_14_345
*741 FILLER_14_357
*742 FILLER_14_363
*743 FILLER_14_365
*744 FILLER_14_377
*745 FILLER_14_389
*746 FILLER_14_401
*747 FILLER_14_41
*748 FILLER_14_413
*749 FILLER_14_419
*750 FILLER_14_421
*751 FILLER_14_426
*752 FILLER_14_438
*753 FILLER_14_450
*754 FILLER_14_462
*755 FILLER_14_474
*756 FILLER_14_477
*757 FILLER_14_489
*758 FILLER_14_512
*759 FILLER_14_53
*760 FILLER_14_65
*761 FILLER_14_77
*762 FILLER_14_83
*763 FILLER_14_85
*764 FILLER_14_97
*765 FILLER_15_105
*766 FILLER_15_111
*767 FILLER_15_116
*768 FILLER_15_128
*769 FILLER_15_132
*770 FILLER_15_144
*771 FILLER_15_156
*772 FILLER_15_169
*773 FILLER_15_181
*774 FILLER_15_193
*775 FILLER_15_205
*776 FILLER_15_217
*777 FILLER_15_223
*778 FILLER_15_225
*779 FILLER_15_237
*780 FILLER_15_249
*781 FILLER_15_261
*782 FILLER_15_273
*783 FILLER_15_279
*784 FILLER_15_281
*785 FILLER_15_293
*786 FILLER_15_3
*787 FILLER_15_305
*788 FILLER_15_31
*789 FILLER_15_317
*790 FILLER_15_329
*791 FILLER_15_335
*792 FILLER_15_337
*793 FILLER_15_349
*794 FILLER_15_361
*795 FILLER_15_373
*796 FILLER_15_385
*797 FILLER_15_391
*798 FILLER_15_393
*799 FILLER_15_405
*800 FILLER_15_417
*801 FILLER_15_429
*802 FILLER_15_43
*803 FILLER_15_441
*804 FILLER_15_447
*805 FILLER_15_449
*806 FILLER_15_461
*807 FILLER_15_473
*808 FILLER_15_485
*809 FILLER_15_489
*810 FILLER_15_496
*811 FILLER_15_508
*812 FILLER_15_55
*813 FILLER_15_57
*814 FILLER_15_69
*815 FILLER_15_81
*816 FILLER_15_9
*817 FILLER_15_93
*818 FILLER_16_109
*819 FILLER_16_121
*820 FILLER_16_133
*821 FILLER_16_139
*822 FILLER_16_14
*823 FILLER_16_141
*824 FILLER_16_153
*825 FILLER_16_165
*826 FILLER_16_177
*827 FILLER_16_189
*828 FILLER_16_195
*829 FILLER_16_197
*830 FILLER_16_209
*831 FILLER_16_221
*832 FILLER_16_233
*833 FILLER_16_245
*834 FILLER_16_251
*835 FILLER_16_253
*836 FILLER_16_26
*837 FILLER_16_265
*838 FILLER_16_277
*839 FILLER_16_289
*840 FILLER_16_29
*841 FILLER_16_3
*842 FILLER_16_301
*843 FILLER_16_307
*844 FILLER_16_309
*845 FILLER_16_321
*846 FILLER_16_333
*847 FILLER_16_345
*848 FILLER_16_357
*849 FILLER_16_363
*850 FILLER_16_365
*851 FILLER_16_377
*852 FILLER_16_389
*853 FILLER_16_401
*854 FILLER_16_41
*855 FILLER_16_413
*856 FILLER_16_419
*857 FILLER_16_421
*858 FILLER_16_433
*859 FILLER_16_445
*860 FILLER_16_457
*861 FILLER_16_469
*862 FILLER_16_475
*863 FILLER_16_477
*864 FILLER_16_483
*865 FILLER_16_487
*866 FILLER_16_512
*867 FILLER_16_53
*868 FILLER_16_65
*869 FILLER_16_77
*870 FILLER_16_83
*871 FILLER_16_85
*872 FILLER_16_97
*873 FILLER_17_105
*874 FILLER_17_111
*875 FILLER_17_113
*876 FILLER_17_125
*877 FILLER_17_137
*878 FILLER_17_149
*879 FILLER_17_15
*880 FILLER_17_161
*881 FILLER_17_167
*882 FILLER_17_169
*883 FILLER_17_181
*884 FILLER_17_193
*885 FILLER_17_205
*886 FILLER_17_217
*887 FILLER_17_223
*888 FILLER_17_225
*889 FILLER_17_237
*890 FILLER_17_249
*891 FILLER_17_261
*892 FILLER_17_27
*893 FILLER_17_273
*894 FILLER_17_279
*895 FILLER_17_281
*896 FILLER_17_293
*897 FILLER_17_3
*898 FILLER_17_305
*899 FILLER_17_317
*900 FILLER_17_32
*901 FILLER_17_329
*902 FILLER_17_335
*903 FILLER_17_337
*904 FILLER_17_349
*905 FILLER_17_361
*906 FILLER_17_373
*907 FILLER_17_385
*908 FILLER_17_391
*909 FILLER_17_393
*910 FILLER_17_405
*911 FILLER_17_417
*912 FILLER_17_429
*913 FILLER_17_44
*914 FILLER_17_441
*915 FILLER_17_447
*916 FILLER_17_449
*917 FILLER_17_461
*918 FILLER_17_469
*919 FILLER_17_475
*920 FILLER_17_500
*921 FILLER_17_508
*922 FILLER_17_57
*923 FILLER_17_69
*924 FILLER_17_81
*925 FILLER_17_93
*926 FILLER_18_109
*927 FILLER_18_11
*928 FILLER_18_121
*929 FILLER_18_133
*930 FILLER_18_139
*931 FILLER_18_141
*932 FILLER_18_153
*933 FILLER_18_165
*934 FILLER_18_17
*935 FILLER_18_177
*936 FILLER_18_189
*937 FILLER_18_195
*938 FILLER_18_197
*939 FILLER_18_209
*940 FILLER_18_221
*941 FILLER_18_233
*942 FILLER_18_245
*943 FILLER_18_25
*944 FILLER_18_251
*945 FILLER_18_253
*946 FILLER_18_265
*947 FILLER_18_277
*948 FILLER_18_289
*949 FILLER_18_3
*950 FILLER_18_301
*951 FILLER_18_307
*952 FILLER_18_309
*953 FILLER_18_321
*954 FILLER_18_333
*955 FILLER_18_345
*956 FILLER_18_357
*957 FILLER_18_363
*958 FILLER_18_365
*959 FILLER_18_377
*960 FILLER_18_389
*961 FILLER_18_401
*962 FILLER_18_413
*963 FILLER_18_419
*964 FILLER_18_421
*965 FILLER_18_433
*966 FILLER_18_445
*967 FILLER_18_457
*968 FILLER_18_472
*969 FILLER_18_477
*970 FILLER_18_483
*971 FILLER_18_50
*972 FILLER_18_508
*973 FILLER_18_62
*974 FILLER_18_74
*975 FILLER_18_82
*976 FILLER_18_85
*977 FILLER_18_97
*978 FILLER_19_105
*979 FILLER_19_111
*980 FILLER_19_113
*981 FILLER_19_125
*982 FILLER_19_137
*983 FILLER_19_149
*984 FILLER_19_161
*985 FILLER_19_167
*986 FILLER_19_169
*987 FILLER_19_181
*988 FILLER_19_193
*989 FILLER_19_205
*990 FILLER_19_217
*991 FILLER_19_223
*992 FILLER_19_225
*993 FILLER_19_237
*994 FILLER_19_249
*995 FILLER_19_261
*996 FILLER_19_273
*997 FILLER_19_279
*998 FILLER_19_290
*999 FILLER_19_3
*1000 FILLER_19_302
*1001 FILLER_19_31
*1002 FILLER_19_314
*1003 FILLER_19_326
*1004 FILLER_19_334
*1005 FILLER_19_337
*1006 FILLER_19_349
*1007 FILLER_19_361
*1008 FILLER_19_373
*1009 FILLER_19_385
*1010 FILLER_19_391
*1011 FILLER_19_393
*1012 FILLER_19_405
*1013 FILLER_19_417
*1014 FILLER_19_429
*1015 FILLER_19_43
*1016 FILLER_19_441
*1017 FILLER_19_447
*1018 FILLER_19_449
*1019 FILLER_19_461
*1020 FILLER_19_473
*1021 FILLER_19_500
*1022 FILLER_19_508
*1023 FILLER_19_55
*1024 FILLER_19_57
*1025 FILLER_19_69
*1026 FILLER_19_81
*1027 FILLER_19_9
*1028 FILLER_19_93
*1029 FILLER_1_105
*1030 FILLER_1_111
*1031 FILLER_1_113
*1032 FILLER_1_118
*1033 FILLER_1_122
*1034 FILLER_1_126
*1035 FILLER_1_134
*1036 FILLER_1_157
*1037 FILLER_1_164
*1038 FILLER_1_172
*1039 FILLER_1_181
*1040 FILLER_1_206
*1041 FILLER_1_213
*1042 FILLER_1_220
*1043 FILLER_1_225
*1044 FILLER_1_234
*1045 FILLER_1_241
*1046 FILLER_1_247
*1047 FILLER_1_269
*1048 FILLER_1_276
*1049 FILLER_1_284
*1050 FILLER_1_292
*1051 FILLER_1_297
*1052 FILLER_1_3
*1053 FILLER_1_32
*1054 FILLER_1_322
*1055 FILLER_1_328
*1056 FILLER_1_332
*1057 FILLER_1_358
*1058 FILLER_1_366
*1059 FILLER_1_388
*1060 FILLER_1_39
*1061 FILLER_1_396
*1062 FILLER_1_404
*1063 FILLER_1_409
*1064 FILLER_1_434
*1065 FILLER_1_444
*1066 FILLER_1_449
*1067 FILLER_1_453
*1068 FILLER_1_47
*1069 FILLER_1_478
*1070 FILLER_1_485
*1071 FILLER_1_493
*1072 FILLER_1_497
*1073 FILLER_1_503
*1074 FILLER_1_508
*1075 FILLER_1_52
*1076 FILLER_1_57
*1077 FILLER_1_64
*1078 FILLER_1_7
*1079 FILLER_1_73
*1080 FILLER_1_80
*1081 FILLER_20_109
*1082 FILLER_20_121
*1083 FILLER_20_133
*1084 FILLER_20_139
*1085 FILLER_20_14
*1086 FILLER_20_141
*1087 FILLER_20_153
*1088 FILLER_20_165
*1089 FILLER_20_177
*1090 FILLER_20_189
*1091 FILLER_20_195
*1092 FILLER_20_197
*1093 FILLER_20_209
*1094 FILLER_20_221
*1095 FILLER_20_233
*1096 FILLER_20_245
*1097 FILLER_20_251
*1098 FILLER_20_253
*1099 FILLER_20_26
*1100 FILLER_20_265
*1101 FILLER_20_277
*1102 FILLER_20_288
*1103 FILLER_20_3
*1104 FILLER_20_300
*1105 FILLER_20_309
*1106 FILLER_20_32
*1107 FILLER_20_321
*1108 FILLER_20_333
*1109 FILLER_20_345
*1110 FILLER_20_357
*1111 FILLER_20_363
*1112 FILLER_20_365
*1113 FILLER_20_377
*1114 FILLER_20_389
*1115 FILLER_20_401
*1116 FILLER_20_413
*1117 FILLER_20_419
*1118 FILLER_20_421
*1119 FILLER_20_433
*1120 FILLER_20_44
*1121 FILLER_20_445
*1122 FILLER_20_457
*1123 FILLER_20_469
*1124 FILLER_20_475
*1125 FILLER_20_480
*1126 FILLER_20_487
*1127 FILLER_20_512
*1128 FILLER_20_56
*1129 FILLER_20_68
*1130 FILLER_20_80
*1131 FILLER_20_85
*1132 FILLER_20_97
*1133 FILLER_21_105
*1134 FILLER_21_111
*1135 FILLER_21_113
*1136 FILLER_21_125
*1137 FILLER_21_137
*1138 FILLER_21_149
*1139 FILLER_21_161
*1140 FILLER_21_167
*1141 FILLER_21_169
*1142 FILLER_21_181
*1143 FILLER_21_193
*1144 FILLER_21_205
*1145 FILLER_21_217
*1146 FILLER_21_223
*1147 FILLER_21_225
*1148 FILLER_21_237
*1149 FILLER_21_249
*1150 FILLER_21_270
*1151 FILLER_21_278
*1152 FILLER_21_281
*1153 FILLER_21_296
*1154 FILLER_21_3
*1155 FILLER_21_306
*1156 FILLER_21_31
*1157 FILLER_21_318
*1158 FILLER_21_330
*1159 FILLER_21_337
*1160 FILLER_21_349
*1161 FILLER_21_361
*1162 FILLER_21_373
*1163 FILLER_21_385
*1164 FILLER_21_391
*1165 FILLER_21_393
*1166 FILLER_21_405
*1167 FILLER_21_417
*1168 FILLER_21_429
*1169 FILLER_21_43
*1170 FILLER_21_441
*1171 FILLER_21_447
*1172 FILLER_21_449
*1173 FILLER_21_461
*1174 FILLER_21_473
*1175 FILLER_21_500
*1176 FILLER_21_508
*1177 FILLER_21_55
*1178 FILLER_21_57
*1179 FILLER_21_69
*1180 FILLER_21_81
*1181 FILLER_21_9
*1182 FILLER_21_93
*1183 FILLER_22_10
*1184 FILLER_22_109
*1185 FILLER_22_121
*1186 FILLER_22_133
*1187 FILLER_22_139
*1188 FILLER_22_141
*1189 FILLER_22_153
*1190 FILLER_22_165
*1191 FILLER_22_17
*1192 FILLER_22_177
*1193 FILLER_22_185
*1194 FILLER_22_192
*1195 FILLER_22_206
*1196 FILLER_22_218
*1197 FILLER_22_230
*1198 FILLER_22_242
*1199 FILLER_22_25
*1200 FILLER_22_250
*1201 FILLER_22_253
*1202 FILLER_22_270
*1203 FILLER_22_278
*1204 FILLER_22_285
*1205 FILLER_22_29
*1206 FILLER_22_293
*1207 FILLER_22_3
*1208 FILLER_22_305
*1209 FILLER_22_309
*1210 FILLER_22_321
*1211 FILLER_22_333
*1212 FILLER_22_345
*1213 FILLER_22_357
*1214 FILLER_22_363
*1215 FILLER_22_365
*1216 FILLER_22_377
*1217 FILLER_22_389
*1218 FILLER_22_401
*1219 FILLER_22_41
*1220 FILLER_22_413
*1221 FILLER_22_419
*1222 FILLER_22_421
*1223 FILLER_22_433
*1224 FILLER_22_445
*1225 FILLER_22_457
*1226 FILLER_22_469
*1227 FILLER_22_475
*1228 FILLER_22_477
*1229 FILLER_22_483
*1230 FILLER_22_487
*1231 FILLER_22_512
*1232 FILLER_22_53
*1233 FILLER_22_65
*1234 FILLER_22_77
*1235 FILLER_22_83
*1236 FILLER_22_85
*1237 FILLER_22_97
*1238 FILLER_23_105
*1239 FILLER_23_111
*1240 FILLER_23_113
*1241 FILLER_23_119
*1242 FILLER_23_126
*1243 FILLER_23_138
*1244 FILLER_23_150
*1245 FILLER_23_162
*1246 FILLER_23_169
*1247 FILLER_23_181
*1248 FILLER_23_190
*1249 FILLER_23_205
*1250 FILLER_23_215
*1251 FILLER_23_223
*1252 FILLER_23_225
*1253 FILLER_23_237
*1254 FILLER_23_249
*1255 FILLER_23_257
*1256 FILLER_23_272
*1257 FILLER_23_285
*1258 FILLER_23_289
*1259 FILLER_23_296
*1260 FILLER_23_3
*1261 FILLER_23_306
*1262 FILLER_23_31
*1263 FILLER_23_318
*1264 FILLER_23_322
*1265 FILLER_23_332
*1266 FILLER_23_343
*1267 FILLER_23_355
*1268 FILLER_23_367
*1269 FILLER_23_375
*1270 FILLER_23_380
*1271 FILLER_23_393
*1272 FILLER_23_405
*1273 FILLER_23_417
*1274 FILLER_23_429
*1275 FILLER_23_43
*1276 FILLER_23_441
*1277 FILLER_23_447
*1278 FILLER_23_449
*1279 FILLER_23_461
*1280 FILLER_23_473
*1281 FILLER_23_481
*1282 FILLER_23_486
*1283 FILLER_23_493
*1284 FILLER_23_500
*1285 FILLER_23_508
*1286 FILLER_23_55
*1287 FILLER_23_57
*1288 FILLER_23_69
*1289 FILLER_23_81
*1290 FILLER_23_9
*1291 FILLER_23_93
*1292 FILLER_24_109
*1293 FILLER_24_11
*1294 FILLER_24_136
*1295 FILLER_24_141
*1296 FILLER_24_153
*1297 FILLER_24_159
*1298 FILLER_24_16
*1299 FILLER_24_184
*1300 FILLER_24_191
*1301 FILLER_24_195
*1302 FILLER_24_206
*1303 FILLER_24_218
*1304 FILLER_24_230
*1305 FILLER_24_242
*1306 FILLER_24_250
*1307 FILLER_24_253
*1308 FILLER_24_258
*1309 FILLER_24_283
*1310 FILLER_24_29
*1311 FILLER_24_295
*1312 FILLER_24_299
*1313 FILLER_24_3
*1314 FILLER_24_307
*1315 FILLER_24_309
*1316 FILLER_24_321
*1317 FILLER_24_333
*1318 FILLER_24_345
*1319 FILLER_24_357
*1320 FILLER_24_363
*1321 FILLER_24_365
*1322 FILLER_24_373
*1323 FILLER_24_396
*1324 FILLER_24_408
*1325 FILLER_24_41
*1326 FILLER_24_421
*1327 FILLER_24_428
*1328 FILLER_24_453
*1329 FILLER_24_457
*1330 FILLER_24_461
*1331 FILLER_24_473
*1332 FILLER_24_477
*1333 FILLER_24_482
*1334 FILLER_24_490
*1335 FILLER_24_512
*1336 FILLER_24_53
*1337 FILLER_24_65
*1338 FILLER_24_77
*1339 FILLER_24_83
*1340 FILLER_24_85
*1341 FILLER_24_97
*1342 FILLER_25_102
*1343 FILLER_25_110
*1344 FILLER_25_113
*1345 FILLER_25_118
*1346 FILLER_25_13
*1347 FILLER_25_143
*1348 FILLER_25_155
*1349 FILLER_25_161
*1350 FILLER_25_167
*1351 FILLER_25_172
*1352 FILLER_25_184
*1353 FILLER_25_207
*1354 FILLER_25_219
*1355 FILLER_25_223
*1356 FILLER_25_225
*1357 FILLER_25_237
*1358 FILLER_25_245
*1359 FILLER_25_25
*1360 FILLER_25_250
*1361 FILLER_25_257
*1362 FILLER_25_267
*1363 FILLER_25_274
*1364 FILLER_25_284
*1365 FILLER_25_296
*1366 FILLER_25_3
*1367 FILLER_25_300
*1368 FILLER_25_322
*1369 FILLER_25_328
*1370 FILLER_25_332
*1371 FILLER_25_337
*1372 FILLER_25_342
*1373 FILLER_25_349
*1374 FILLER_25_358
*1375 FILLER_25_365
*1376 FILLER_25_369
*1377 FILLER_25_37
*1378 FILLER_25_373
*1379 FILLER_25_380
*1380 FILLER_25_387
*1381 FILLER_25_391
*1382 FILLER_25_396
*1383 FILLER_25_408
*1384 FILLER_25_432
*1385 FILLER_25_439
*1386 FILLER_25_447
*1387 FILLER_25_449
*1388 FILLER_25_453
*1389 FILLER_25_462
*1390 FILLER_25_470
*1391 FILLER_25_475
*1392 FILLER_25_49
*1393 FILLER_25_500
*1394 FILLER_25_508
*1395 FILLER_25_55
*1396 FILLER_25_57
*1397 FILLER_25_69
*1398 FILLER_25_76
*1399 FILLER_25_88
*1400 FILLER_25_9
*1401 FILLER_25_96
*1402 FILLER_26_11
*1403 FILLER_26_119
*1404 FILLER_26_126
*1405 FILLER_26_132
*1406 FILLER_26_136
*1407 FILLER_26_141
*1408 FILLER_26_149
*1409 FILLER_26_15
*1410 FILLER_26_153
*1411 FILLER_26_178
*1412 FILLER_26_185
*1413 FILLER_26_192
*1414 FILLER_26_197
*1415 FILLER_26_201
*1416 FILLER_26_22
*1417 FILLER_26_226
*1418 FILLER_26_233
*1419 FILLER_26_248
*1420 FILLER_26_256
*1421 FILLER_26_283
*1422 FILLER_26_29
*1423 FILLER_26_290
*1424 FILLER_26_297
*1425 FILLER_26_3
*1426 FILLER_26_304
*1427 FILLER_26_309
*1428 FILLER_26_316
*1429 FILLER_26_323
*1430 FILLER_26_334
*1431 FILLER_26_359
*1432 FILLER_26_363
*1433 FILLER_26_365
*1434 FILLER_26_38
*1435 FILLER_26_390
*1436 FILLER_26_397
*1437 FILLER_26_405
*1438 FILLER_26_409
*1439 FILLER_26_416
*1440 FILLER_26_424
*1441 FILLER_26_431
*1442 FILLER_26_443
*1443 FILLER_26_447
*1444 FILLER_26_45
*1445 FILLER_26_472
*1446 FILLER_26_480
*1447 FILLER_26_487
*1448 FILLER_26_512
*1449 FILLER_26_57
*1450 FILLER_26_62
*1451 FILLER_26_69
*1452 FILLER_26_76
*1453 FILLER_26_85
*1454 FILLER_26_94
*1455 FILLER_27_106
*1456 FILLER_27_113
*1457 FILLER_27_121
*1458 FILLER_27_130
*1459 FILLER_27_138
*1460 FILLER_27_162
*1461 FILLER_27_169
*1462 FILLER_27_192
*1463 FILLER_27_200
*1464 FILLER_27_204
*1465 FILLER_27_208
*1466 FILLER_27_216
*1467 FILLER_27_220
*1468 FILLER_27_225
*1469 FILLER_27_24
*1470 FILLER_27_248
*1471 FILLER_27_274
*1472 FILLER_27_281
*1473 FILLER_27_29
*1474 FILLER_27_304
*1475 FILLER_27_309
*1476 FILLER_27_332
*1477 FILLER_27_358
*1478 FILLER_27_386
*1479 FILLER_27_414
*1480 FILLER_27_421
*1481 FILLER_27_443
*1482 FILLER_27_447
*1483 FILLER_27_449
*1484 FILLER_27_471
*1485 FILLER_27_475
*1486 FILLER_27_477
*1487 FILLER_27_500
*1488 FILLER_27_508
*1489 FILLER_27_52
*1490 FILLER_27_57
*1491 FILLER_27_80
*1492 FILLER_2_108
*1493 FILLER_2_135
*1494 FILLER_2_139
*1495 FILLER_2_141
*1496 FILLER_2_146
*1497 FILLER_2_153
*1498 FILLER_2_180
*1499 FILLER_2_184
*1500 FILLER_2_188
*1501 FILLER_2_200
*1502 FILLER_2_207
*1503 FILLER_2_219
*1504 FILLER_2_231
*1505 FILLER_2_24
*1506 FILLER_2_243
*1507 FILLER_2_248
*1508 FILLER_2_253
*1509 FILLER_2_259
*1510 FILLER_2_266
*1511 FILLER_2_272
*1512 FILLER_2_276
*1513 FILLER_2_301
*1514 FILLER_2_307
*1515 FILLER_2_312
*1516 FILLER_2_32
*1517 FILLER_2_324
*1518 FILLER_2_329
*1519 FILLER_2_335
*1520 FILLER_2_357
*1521 FILLER_2_363
*1522 FILLER_2_368
*1523 FILLER_2_376
*1524 FILLER_2_39
*1525 FILLER_2_399
*1526 FILLER_2_406
*1527 FILLER_2_412
*1528 FILLER_2_416
*1529 FILLER_2_424
*1530 FILLER_2_428
*1531 FILLER_2_445
*1532 FILLER_2_46
*1533 FILLER_2_470
*1534 FILLER_2_480
*1535 FILLER_2_487
*1536 FILLER_2_512
*1537 FILLER_2_71
*1538 FILLER_2_80
*1539 FILLER_2_85
*1540 FILLER_3_110
*1541 FILLER_3_113
*1542 FILLER_3_118
*1543 FILLER_3_125
*1544 FILLER_3_13
*1545 FILLER_3_133
*1546 FILLER_3_139
*1547 FILLER_3_146
*1548 FILLER_3_158
*1549 FILLER_3_163
*1550 FILLER_3_167
*1551 FILLER_3_169
*1552 FILLER_3_181
*1553 FILLER_3_185
*1554 FILLER_3_207
*1555 FILLER_3_219
*1556 FILLER_3_223
*1557 FILLER_3_225
*1558 FILLER_3_237
*1559 FILLER_3_249
*1560 FILLER_3_261
*1561 FILLER_3_273
*1562 FILLER_3_279
*1563 FILLER_3_287
*1564 FILLER_3_3
*1565 FILLER_3_312
*1566 FILLER_3_324
*1567 FILLER_3_328
*1568 FILLER_3_332
*1569 FILLER_3_340
*1570 FILLER_3_367
*1571 FILLER_3_374
*1572 FILLER_3_38
*1573 FILLER_3_381
*1574 FILLER_3_388
*1575 FILLER_3_414
*1576 FILLER_3_425
*1577 FILLER_3_437
*1578 FILLER_3_444
*1579 FILLER_3_45
*1580 FILLER_3_470
*1581 FILLER_3_495
*1582 FILLER_3_503
*1583 FILLER_3_508
*1584 FILLER_3_52
*1585 FILLER_3_78
*1586 FILLER_3_86
*1587 FILLER_3_9
*1588 FILLER_3_91
*1589 FILLER_3_98
*1590 FILLER_4_100
*1591 FILLER_4_112
*1592 FILLER_4_124
*1593 FILLER_4_136
*1594 FILLER_4_141
*1595 FILLER_4_153
*1596 FILLER_4_162
*1597 FILLER_4_174
*1598 FILLER_4_186
*1599 FILLER_4_194
*1600 FILLER_4_197
*1601 FILLER_4_209
*1602 FILLER_4_221
*1603 FILLER_4_233
*1604 FILLER_4_24
*1605 FILLER_4_245
*1606 FILLER_4_251
*1607 FILLER_4_253
*1608 FILLER_4_265
*1609 FILLER_4_277
*1610 FILLER_4_289
*1611 FILLER_4_294
*1612 FILLER_4_301
*1613 FILLER_4_307
*1614 FILLER_4_309
*1615 FILLER_4_32
*1616 FILLER_4_321
*1617 FILLER_4_333
*1618 FILLER_4_339
*1619 FILLER_4_350
*1620 FILLER_4_356
*1621 FILLER_4_360
*1622 FILLER_4_368
*1623 FILLER_4_376
*1624 FILLER_4_381
*1625 FILLER_4_389
*1626 FILLER_4_393
*1627 FILLER_4_40
*1628 FILLER_4_405
*1629 FILLER_4_417
*1630 FILLER_4_421
*1631 FILLER_4_433
*1632 FILLER_4_445
*1633 FILLER_4_451
*1634 FILLER_4_455
*1635 FILLER_4_459
*1636 FILLER_4_466
*1637 FILLER_4_474
*1638 FILLER_4_477
*1639 FILLER_4_482
*1640 FILLER_4_490
*1641 FILLER_4_512
*1642 FILLER_4_63
*1643 FILLER_4_71
*1644 FILLER_4_78
*1645 FILLER_4_88
*1646 FILLER_5_100
*1647 FILLER_5_113
*1648 FILLER_5_125
*1649 FILLER_5_137
*1650 FILLER_5_149
*1651 FILLER_5_161
*1652 FILLER_5_167
*1653 FILLER_5_169
*1654 FILLER_5_181
*1655 FILLER_5_193
*1656 FILLER_5_205
*1657 FILLER_5_217
*1658 FILLER_5_223
*1659 FILLER_5_225
*1660 FILLER_5_237
*1661 FILLER_5_249
*1662 FILLER_5_261
*1663 FILLER_5_273
*1664 FILLER_5_279
*1665 FILLER_5_281
*1666 FILLER_5_289
*1667 FILLER_5_295
*1668 FILLER_5_3
*1669 FILLER_5_307
*1670 FILLER_5_319
*1671 FILLER_5_32
*1672 FILLER_5_331
*1673 FILLER_5_335
*1674 FILLER_5_337
*1675 FILLER_5_345
*1676 FILLER_5_350
*1677 FILLER_5_362
*1678 FILLER_5_374
*1679 FILLER_5_386
*1680 FILLER_5_393
*1681 FILLER_5_405