* NGSPICE file created from wrapped_frequency_counter.ext - technology: sky130A

* Black-box entry subcircuit for sky130_fd_sc_hd__decap_4 abstract view
.subckt sky130_fd_sc_hd__decap_4 VGND VNB VPB VPWR
.ends

* Black-box entry subcircuit for sky130_fd_sc_hd__tapvpwrvgnd_1 abstract view
.subckt sky130_fd_sc_hd__tapvpwrvgnd_1 VGND VPWR
.ends

* Black-box entry subcircuit for sky130_ef_sc_hd__decap_12 abstract view
.subckt sky130_ef_sc_hd__decap_12 VGND VNB VPB VPWR
.ends

* Black-box entry subcircuit for sky130_fd_sc_hd__fill_1 abstract view
.subckt sky130_fd_sc_hd__fill_1 VGND VNB VPB VPWR
.ends

* Black-box entry subcircuit for sky130_fd_sc_hd__decap_8 abstract view
.subckt sky130_fd_sc_hd__decap_8 VGND VNB VPB VPWR
.ends

* Black-box entry subcircuit for sky130_fd_sc_hd__fill_2 abstract view
.subckt sky130_fd_sc_hd__fill_2 VGND VNB VPB VPWR
.ends

* Black-box entry subcircuit for sky130_fd_sc_hd__conb_1 abstract view
.subckt sky130_fd_sc_hd__conb_1 VGND VNB VPB VPWR HI LO
.ends

* Black-box entry subcircuit for sky130_fd_sc_hd__o32a_1 abstract view
.subckt sky130_fd_sc_hd__o32a_1 A1 A2 A3 B1 B2 VGND VNB VPB VPWR X
.ends

* Black-box entry subcircuit for sky130_fd_sc_hd__dfxtp_1 abstract view
.subckt sky130_fd_sc_hd__dfxtp_1 CLK D VGND VNB VPB VPWR Q
.ends

* Black-box entry subcircuit for sky130_fd_sc_hd__decap_6 abstract view
.subckt sky130_fd_sc_hd__decap_6 VGND VNB VPB VPWR
.ends

* Black-box entry subcircuit for sky130_fd_sc_hd__o211a_1 abstract view
.subckt sky130_fd_sc_hd__o211a_1 A1 A2 B1 C1 VGND VNB VPB VPWR X
.ends

* Black-box entry subcircuit for sky130_fd_sc_hd__a31o_1 abstract view
.subckt sky130_fd_sc_hd__a31o_1 A1 A2 A3 B1 VGND VNB VPB VPWR X
.ends

* Black-box entry subcircuit for sky130_fd_sc_hd__a2bb2o_1 abstract view
.subckt sky130_fd_sc_hd__a2bb2o_1 A1_N A2_N B1 B2 VGND VNB VPB VPWR X
.ends

* Black-box entry subcircuit for sky130_fd_sc_hd__ebufn_8 abstract view
.subckt sky130_fd_sc_hd__ebufn_8 A TE_B VGND VNB VPB VPWR Z
.ends

* Black-box entry subcircuit for sky130_fd_sc_hd__nor2_1 abstract view
.subckt sky130_fd_sc_hd__nor2_1 A B VGND VNB VPB VPWR Y
.ends

* Black-box entry subcircuit for sky130_fd_sc_hd__clkbuf_2 abstract view
.subckt sky130_fd_sc_hd__clkbuf_2 A VGND VNB VPB VPWR X
.ends

* Black-box entry subcircuit for sky130_fd_sc_hd__mux2_1 abstract view
.subckt sky130_fd_sc_hd__mux2_1 A0 A1 S VGND VNB VPB VPWR X
.ends

* Black-box entry subcircuit for sky130_fd_sc_hd__and2_1 abstract view
.subckt sky130_fd_sc_hd__and2_1 A B VGND VNB VPB VPWR X
.ends

* Black-box entry subcircuit for sky130_fd_sc_hd__decap_3 abstract view
.subckt sky130_fd_sc_hd__decap_3 VGND VNB VPB VPWR
.ends

* Black-box entry subcircuit for sky130_fd_sc_hd__inv_2 abstract view
.subckt sky130_fd_sc_hd__inv_2 A VGND VNB VPB VPWR Y
.ends

* Black-box entry subcircuit for sky130_fd_sc_hd__and3b_1 abstract view
.subckt sky130_fd_sc_hd__and3b_1 A_N B C VGND VNB VPB VPWR X
.ends

* Black-box entry subcircuit for sky130_fd_sc_hd__o221ai_1 abstract view
.subckt sky130_fd_sc_hd__o221ai_1 A1 A2 B1 B2 C1 VGND VNB VPB VPWR Y
.ends

* Black-box entry subcircuit for sky130_fd_sc_hd__a21oi_1 abstract view
.subckt sky130_fd_sc_hd__a21oi_1 A1 A2 B1 VGND VNB VPB VPWR Y
.ends

* Black-box entry subcircuit for sky130_fd_sc_hd__clkbuf_1 abstract view
.subckt sky130_fd_sc_hd__clkbuf_1 A VGND VNB VPB VPWR X
.ends

* Black-box entry subcircuit for sky130_fd_sc_hd__o2111a_1 abstract view
.subckt sky130_fd_sc_hd__o2111a_1 A1 A2 B1 C1 D1 VGND VNB VPB VPWR X
.ends

* Black-box entry subcircuit for sky130_fd_sc_hd__xnor2_1 abstract view
.subckt sky130_fd_sc_hd__xnor2_1 A B VGND VNB VPB VPWR Y
.ends

* Black-box entry subcircuit for sky130_fd_sc_hd__nand2_1 abstract view
.subckt sky130_fd_sc_hd__nand2_1 A B VGND VNB VPB VPWR Y
.ends

* Black-box entry subcircuit for sky130_fd_sc_hd__mux2_2 abstract view
.subckt sky130_fd_sc_hd__mux2_2 A0 A1 S VGND VNB VPB VPWR X
.ends

* Black-box entry subcircuit for sky130_fd_sc_hd__or2_1 abstract view
.subckt sky130_fd_sc_hd__or2_1 A B VGND VNB VPB VPWR X
.ends

* Black-box entry subcircuit for sky130_fd_sc_hd__o22a_1 abstract view
.subckt sky130_fd_sc_hd__o22a_1 A1 A2 B1 B2 VGND VNB VPB VPWR X
.ends

* Black-box entry subcircuit for sky130_fd_sc_hd__and3_1 abstract view
.subckt sky130_fd_sc_hd__and3_1 A B C VGND VNB VPB VPWR X
.ends

* Black-box entry subcircuit for sky130_fd_sc_hd__buf_4 abstract view
.subckt sky130_fd_sc_hd__buf_4 A VGND VNB VPB VPWR X
.ends

* Black-box entry subcircuit for sky130_fd_sc_hd__and2b_1 abstract view
.subckt sky130_fd_sc_hd__and2b_1 A_N B VGND VNB VPB VPWR X
.ends

* Black-box entry subcircuit for sky130_fd_sc_hd__clkbuf_4 abstract view
.subckt sky130_fd_sc_hd__clkbuf_4 A VGND VNB VPB VPWR X
.ends

* Black-box entry subcircuit for sky130_fd_sc_hd__dfxtp_2 abstract view
.subckt sky130_fd_sc_hd__dfxtp_2 CLK D VGND VNB VPB VPWR Q
.ends

* Black-box entry subcircuit for sky130_fd_sc_hd__a32o_1 abstract view
.subckt sky130_fd_sc_hd__a32o_1 A1 A2 A3 B1 B2 VGND VNB VPB VPWR X
.ends

* Black-box entry subcircuit for sky130_fd_sc_hd__or3b_1 abstract view
.subckt sky130_fd_sc_hd__or3b_1 A B C_N VGND VNB VPB VPWR X
.ends

* Black-box entry subcircuit for sky130_fd_sc_hd__buf_8 abstract view
.subckt sky130_fd_sc_hd__buf_8 A VGND VNB VPB VPWR X
.ends

* Black-box entry subcircuit for sky130_fd_sc_hd__o21ba_1 abstract view
.subckt sky130_fd_sc_hd__o21ba_1 A1 A2 B1_N VGND VNB VPB VPWR X
.ends

* Black-box entry subcircuit for sky130_fd_sc_hd__a21bo_1 abstract view
.subckt sky130_fd_sc_hd__a21bo_1 A1 A2 B1_N VGND VNB VPB VPWR X
.ends

* Black-box entry subcircuit for sky130_fd_sc_hd__a211o_1 abstract view
.subckt sky130_fd_sc_hd__a211o_1 A1 A2 B1 C1 VGND VNB VPB VPWR X
.ends

* Black-box entry subcircuit for sky130_fd_sc_hd__o21a_1 abstract view
.subckt sky130_fd_sc_hd__o21a_1 A1 A2 B1 VGND VNB VPB VPWR X
.ends

* Black-box entry subcircuit for sky130_fd_sc_hd__buf_2 abstract view
.subckt sky130_fd_sc_hd__buf_2 A VGND VNB VPB VPWR X
.ends

* Black-box entry subcircuit for sky130_fd_sc_hd__o21ai_1 abstract view
.subckt sky130_fd_sc_hd__o21ai_1 A1 A2 B1 VGND VNB VPB VPWR Y
.ends

* Black-box entry subcircuit for sky130_fd_sc_hd__o21bai_1 abstract view
.subckt sky130_fd_sc_hd__o21bai_1 A1 A2 B1_N VGND VNB VPB VPWR Y
.ends

* Black-box entry subcircuit for sky130_fd_sc_hd__o2bb2a_1 abstract view
.subckt sky130_fd_sc_hd__o2bb2a_1 A1_N A2_N B1 B2 VGND VNB VPB VPWR X
.ends

* Black-box entry subcircuit for sky130_fd_sc_hd__o221a_1 abstract view
.subckt sky130_fd_sc_hd__o221a_1 A1 A2 B1 B2 C1 VGND VNB VPB VPWR X
.ends

* Black-box entry subcircuit for sky130_fd_sc_hd__a21o_1 abstract view
.subckt sky130_fd_sc_hd__a21o_1 A1 A2 B1 VGND VNB VPB VPWR X
.ends

* Black-box entry subcircuit for sky130_fd_sc_hd__clkinv_2 abstract view
.subckt sky130_fd_sc_hd__clkinv_2 A VGND VNB VPB VPWR Y
.ends

* Black-box entry subcircuit for sky130_fd_sc_hd__or2b_1 abstract view
.subckt sky130_fd_sc_hd__or2b_1 A B_N VGND VNB VPB VPWR X
.ends

* Black-box entry subcircuit for sky130_fd_sc_hd__a22o_1 abstract view
.subckt sky130_fd_sc_hd__a22o_1 A1 A2 B1 B2 VGND VNB VPB VPWR X
.ends

* Black-box entry subcircuit for sky130_fd_sc_hd__or3_1 abstract view
.subckt sky130_fd_sc_hd__or3_1 A B C VGND VNB VPB VPWR X
.ends

* Black-box entry subcircuit for sky130_fd_sc_hd__clkbuf_16 abstract view
.subckt sky130_fd_sc_hd__clkbuf_16 A VGND VNB VPB VPWR X
.ends

* Black-box entry subcircuit for sky130_fd_sc_hd__dlymetal6s2s_1 abstract view
.subckt sky130_fd_sc_hd__dlymetal6s2s_1 A VGND VNB VPB VPWR X
.ends

* Black-box entry subcircuit for sky130_fd_sc_hd__o31a_1 abstract view
.subckt sky130_fd_sc_hd__o31a_1 A1 A2 A3 B1 VGND VNB VPB VPWR X
.ends

* Black-box entry subcircuit for sky130_fd_sc_hd__a22oi_1 abstract view
.subckt sky130_fd_sc_hd__a22oi_1 A1 A2 B1 B2 VGND VNB VPB VPWR Y
.ends

* Black-box entry subcircuit for sky130_fd_sc_hd__dlygate4sd3_1 abstract view
.subckt sky130_fd_sc_hd__dlygate4sd3_1 A VGND VNB VPB VPWR X
.ends

* Black-box entry subcircuit for sky130_fd_sc_hd__a41o_1 abstract view
.subckt sky130_fd_sc_hd__a41o_1 A1 A2 A3 A4 B1 VGND VNB VPB VPWR X
.ends

* Black-box entry subcircuit for sky130_fd_sc_hd__buf_6 abstract view
.subckt sky130_fd_sc_hd__buf_6 A VGND VNB VPB VPWR X
.ends

* Black-box entry subcircuit for sky130_fd_sc_hd__nand3_1 abstract view
.subckt sky130_fd_sc_hd__nand3_1 A B C VGND VNB VPB VPWR Y
.ends

* Black-box entry subcircuit for sky130_fd_sc_hd__xor2_1 abstract view
.subckt sky130_fd_sc_hd__xor2_1 A B VGND VNB VPB VPWR X
.ends

* Black-box entry subcircuit for sky130_fd_sc_hd__o211ai_1 abstract view
.subckt sky130_fd_sc_hd__o211ai_1 A1 A2 B1 C1 VGND VNB VPB VPWR Y
.ends

* Black-box entry subcircuit for sky130_fd_sc_hd__clkbuf_8 abstract view
.subckt sky130_fd_sc_hd__clkbuf_8 A VGND VNB VPB VPWR X
.ends

* Black-box entry subcircuit for sky130_fd_sc_hd__a221o_1 abstract view
.subckt sky130_fd_sc_hd__a221o_1 A1 A2 B1 B2 C1 VGND VNB VPB VPWR X
.ends

.subckt wrapped_frequency_counter active io_in[0] io_in[10] io_in[11] io_in[12] io_in[13]
+ io_in[14] io_in[15] io_in[16] io_in[17] io_in[18] io_in[19] io_in[1] io_in[20] io_in[21]
+ io_in[22] io_in[23] io_in[24] io_in[25] io_in[26] io_in[27] io_in[28] io_in[29]
+ io_in[2] io_in[30] io_in[31] io_in[32] io_in[33] io_in[34] io_in[35] io_in[36] io_in[37]
+ io_in[3] io_in[4] io_in[5] io_in[6] io_in[7] io_in[8] io_in[9] io_oeb[0] io_oeb[10]
+ io_oeb[11] io_oeb[12] io_oeb[13] io_oeb[14] io_oeb[15] io_oeb[16] io_oeb[17] io_oeb[18]
+ io_oeb[19] io_oeb[1] io_oeb[20] io_oeb[21] io_oeb[22] io_oeb[23] io_oeb[24] io_oeb[25]
+ io_oeb[26] io_oeb[27] io_oeb[28] io_oeb[29] io_oeb[2] io_oeb[30] io_oeb[31] io_oeb[32]
+ io_oeb[33] io_oeb[34] io_oeb[35] io_oeb[36] io_oeb[37] io_oeb[3] io_oeb[4] io_oeb[5]
+ io_oeb[6] io_oeb[7] io_oeb[8] io_oeb[9] io_out[0] io_out[10] io_out[11] io_out[12]
+ io_out[13] io_out[14] io_out[15] io_out[16] io_out[17] io_out[18] io_out[19] io_out[1]
+ io_out[20] io_out[21] io_out[22] io_out[23] io_out[24] io_out[25] io_out[26] io_out[27]
+ io_out[28] io_out[29] io_out[2] io_out[30] io_out[31] io_out[32] io_out[33] io_out[34]
+ io_out[35] io_out[36] io_out[37] io_out[3] io_out[4] io_out[5] io_out[6] io_out[7]
+ io_out[8] io_out[9] la1_data_in[0] la1_data_in[10] la1_data_in[11] la1_data_in[12]
+ la1_data_in[13] la1_data_in[14] la1_data_in[15] la1_data_in[16] la1_data_in[17]
+ la1_data_in[18] la1_data_in[19] la1_data_in[1] la1_data_in[20] la1_data_in[21] la1_data_in[22]
+ la1_data_in[23] la1_data_in[24] la1_data_in[25] la1_data_in[26] la1_data_in[27]
+ la1_data_in[28] la1_data_in[29] la1_data_in[2] la1_data_in[30] la1_data_in[31] la1_data_in[3]
+ la1_data_in[4] la1_data_in[5] la1_data_in[6] la1_data_in[7] la1_data_in[8] la1_data_in[9]
+ la1_data_out[0] la1_data_out[10] la1_data_out[11] la1_data_out[12] la1_data_out[13]
+ la1_data_out[14] la1_data_out[15] la1_data_out[16] la1_data_out[17] la1_data_out[18]
+ la1_data_out[19] la1_data_out[1] la1_data_out[20] la1_data_out[21] la1_data_out[22]
+ la1_data_out[23] la1_data_out[24] la1_data_out[25] la1_data_out[26] la1_data_out[27]
+ la1_data_out[28] la1_data_out[29] la1_data_out[2] la1_data_out[30] la1_data_out[31]
+ la1_data_out[3] la1_data_out[4] la1_data_out[5] la1_data_out[6] la1_data_out[7]
+ la1_data_out[8] la1_data_out[9] la1_oenb[0] la1_oenb[10] la1_oenb[11] la1_oenb[12]
+ la1_oenb[13] la1_oenb[14] la1_oenb[15] la1_oenb[16] la1_oenb[17] la1_oenb[18] la1_oenb[19]
+ la1_oenb[1] la1_oenb[20] la1_oenb[21] la1_oenb[22] la1_oenb[23] la1_oenb[24] la1_oenb[25]
+ la1_oenb[26] la1_oenb[27] la1_oenb[28] la1_oenb[29] la1_oenb[2] la1_oenb[30] la1_oenb[31]
+ la1_oenb[3] la1_oenb[4] la1_oenb[5] la1_oenb[6] la1_oenb[7] la1_oenb[8] la1_oenb[9]
+ vccd1 vssd1 wb_clk_i
XFILLER_54_214 vssd1 vssd1 vccd1 vccd1 sky130_fd_sc_hd__decap_4
XTAP_199 vssd1 vccd1 sky130_fd_sc_hd__tapvpwrvgnd_1
XTAP_188 vssd1 vccd1 sky130_fd_sc_hd__tapvpwrvgnd_1
XTAP_177 vssd1 vccd1 sky130_fd_sc_hd__tapvpwrvgnd_1
XFILLER_52_29 vssd1 vssd1 vccd1 vccd1 sky130_ef_sc_hd__decap_12
XFILLER_22_155 vssd1 vssd1 vccd1 vccd1 sky130_fd_sc_hd__fill_1
XFILLER_45_269 vssd1 vssd1 vccd1 vccd1 sky130_fd_sc_hd__decap_8
XFILLER_45_225 vssd1 vssd1 vccd1 vccd1 sky130_fd_sc_hd__fill_2
XFILLER_13_111 vssd1 vssd1 vccd1 vccd1 sky130_fd_sc_hd__fill_1
XFILLER_26_41 vssd1 vssd1 vccd1 vccd1 sky130_ef_sc_hd__decap_12
XFILLER_26_85 vssd1 vssd1 vccd1 vccd1 sky130_ef_sc_hd__decap_12
XFILLER_9_137 vssd1 vssd1 vccd1 vccd1 sky130_ef_sc_hd__decap_12
XFILLER_47_8 vssd1 vssd1 vccd1 vccd1 sky130_ef_sc_hd__decap_12
XFILLER_67_81 vssd1 vssd1 vccd1 vccd1 sky130_ef_sc_hd__decap_12
XFILLER_51_239 vssd1 vssd1 vccd1 vccd1 sky130_fd_sc_hd__fill_2
XFILLER_27_225 vssd1 vssd1 vccd1 vccd1 sky130_fd_sc_hd__fill_2
XFILLER_50_272 vssd1 vssd1 vccd1 vccd1 sky130_fd_sc_hd__decap_4
XFILLER_77_169 vssd1 vssd1 vccd1 vccd1 sky130_ef_sc_hd__decap_12
XFILLER_77_125 vssd1 vssd1 vccd1 vccd1 sky130_ef_sc_hd__decap_12
XFILLER_37_51 vssd1 vssd1 vccd1 vccd1 sky130_fd_sc_hd__decap_4
XFILLER_18_225 vssd1 vssd1 vccd1 vccd1 sky130_fd_sc_hd__decap_4
XFILLER_41_250 vssd1 vssd1 vccd1 vccd1 sky130_fd_sc_hd__decap_4
X_1060__59 vssd1 vssd1 vccd1 vccd1 _1060__59/HI net59 sky130_fd_sc_hd__conb_1
X_0770_ _0199_ _0200_ _0201_ _0202_ _0136_ vssd1 vssd1 vccd1 vccd1 _0203_ sky130_fd_sc_hd__o32a_1
XFILLER_24_228 vssd1 vssd1 vccd1 vccd1 sky130_ef_sc_hd__decap_12
X_0899_ clknet_2_0__leaf_wb_clk_i _0040_ vssd1 vssd1 vccd1 vccd1 frequency_counter_0.clk_counter\[8\]
+ sky130_fd_sc_hd__dfxtp_1
XFILLER_74_139 vssd1 vssd1 vccd1 vccd1 sky130_fd_sc_hd__fill_1
XFILLER_59_169 vssd1 vssd1 vccd1 vccd1 sky130_fd_sc_hd__decap_4
XFILLER_59_125 vssd1 vssd1 vccd1 vccd1 sky130_ef_sc_hd__decap_12
XFILLER_23_272 vssd1 vssd1 vccd1 vccd1 sky130_fd_sc_hd__decap_8
XFILLER_23_294 vssd1 vssd1 vccd1 vccd1 sky130_fd_sc_hd__decap_4
XFILLER_2_165 vssd1 vssd1 vccd1 vccd1 sky130_fd_sc_hd__decap_4
XFILLER_73_161 vssd1 vssd1 vccd1 vccd1 sky130_fd_sc_hd__decap_6
XFILLER_48_83 vssd1 vssd1 vccd1 vccd1 sky130_fd_sc_hd__fill_1
XFILLER_0_57 vssd1 vssd1 vccd1 vccd1 sky130_ef_sc_hd__decap_12
X_1018__34 vssd1 vssd1 vccd1 vccd1 _1018__34/HI net34 sky130_fd_sc_hd__conb_1
X_0822_ _0168_ _0241_ _0243_ _0083_ vssd1 vssd1 vccd1 vccd1 _0044_ sky130_fd_sc_hd__o211a_1
XFILLER_50_3 vssd1 vssd1 vccd1 vccd1 sky130_ef_sc_hd__decap_12
X_0753_ frequency_counter_0.seven_segment0.ten_count\[0\] _0167_ _0175_ frequency_counter_0.seven_segment0.ten_count\[1\]
+ vssd1 vssd1 vccd1 vccd1 _0190_ sky130_fd_sc_hd__a31o_1
X_0684_ frequency_counter_0.update_period\[10\] _0127_ frequency_counter_0.clk_counter\[11\]
+ _0128_ vssd1 vssd1 vccd1 vccd1 _0129_ sky130_fd_sc_hd__a2bb2o_1
XFILLER_56_139 vssd1 vssd1 vccd1 vccd1 sky130_fd_sc_hd__fill_1
X_1098_ net97 _0368_ vssd1 vssd1 vccd1 vccd1 io_oeb[27] sky130_fd_sc_hd__ebufn_8
XFILLER_12_209 vssd1 vssd1 vccd1 vccd1 sky130_ef_sc_hd__decap_12
XFILLER_60_29 vssd1 vssd1 vccd1 vccd1 sky130_fd_sc_hd__fill_2
XFILLER_20_253 vssd1 vssd1 vccd1 vccd1 sky130_ef_sc_hd__decap_12
XFILLER_20_297 vssd1 vssd1 vccd1 vccd1 sky130_fd_sc_hd__fill_2
XFILLER_69_27 vssd1 vssd1 vccd1 vccd1 sky130_ef_sc_hd__decap_12
XFILLER_62_109 vssd1 vssd1 vccd1 vccd1 sky130_ef_sc_hd__decap_12
XFILLER_55_194 vssd1 vssd1 vccd1 vccd1 sky130_fd_sc_hd__decap_4
XFILLER_18_53 vssd1 vssd1 vccd1 vccd1 sky130_ef_sc_hd__decap_12
XFILLER_18_97 vssd1 vssd1 vccd1 vccd1 sky130_ef_sc_hd__decap_12
XFILLER_70_197 vssd1 vssd1 vccd1 vccd1 sky130_ef_sc_hd__decap_12
XFILLER_70_153 vssd1 vssd1 vccd1 vccd1 sky130_ef_sc_hd__decap_12
XFILLER_34_85 vssd1 vssd1 vccd1 vccd1 sky130_ef_sc_hd__decap_12
XFILLER_34_41 vssd1 vssd1 vccd1 vccd1 sky130_ef_sc_hd__decap_12
XTAP_507 vssd1 vccd1 sky130_fd_sc_hd__tapvpwrvgnd_1
XFILLER_78_297 vssd1 vssd1 vccd1 vccd1 sky130_fd_sc_hd__fill_2
XFILLER_78_253 vssd1 vssd1 vccd1 vccd1 sky130_ef_sc_hd__decap_12
XTAP_529 vssd1 vccd1 sky130_fd_sc_hd__tapvpwrvgnd_1
XTAP_518 vssd1 vccd1 sky130_fd_sc_hd__tapvpwrvgnd_1
XFILLER_59_93 vssd1 vssd1 vccd1 vccd1 sky130_ef_sc_hd__decap_12
XFILLER_38_139 vssd1 vssd1 vccd1 vccd1 sky130_fd_sc_hd__fill_1
XFILLER_75_81 vssd1 vssd1 vccd1 vccd1 sky130_ef_sc_hd__decap_12
XFILLER_61_153 vssd1 vssd1 vccd1 vccd1 sky130_fd_sc_hd__decap_4
XFILLER_46_194 vssd1 vssd1 vccd1 vccd1 sky130_fd_sc_hd__fill_2
X_1021_ net37 _0291_ vssd1 vssd1 vccd1 vccd1 la1_data_out[20] sky130_fd_sc_hd__ebufn_8
X_0805_ frequency_counter_0.clk_counter\[10\] _0226_ vssd1 vssd1 vccd1 vccd1 _0229_
+ sky130_fd_sc_hd__nor2_1
X_0736_ _0177_ vssd1 vssd1 vccd1 vccd1 _0178_ sky130_fd_sc_hd__clkbuf_2
X_0667_ frequency_counter_0.update_period\[7\] net16 net8 vssd1 vssd1 vccd1 vccd1
+ _0117_ sky130_fd_sc_hd__mux2_1
X_0598_ _0069_ _0063_ vssd1 vssd1 vccd1 vccd1 _0071_ sky130_fd_sc_hd__and2_1
XFILLER_44_109 vssd1 vssd1 vccd1 vccd1 sky130_ef_sc_hd__decap_12
XFILLER_37_161 vssd1 vssd1 vccd1 vccd1 sky130_fd_sc_hd__decap_6
XFILLER_71_39 vssd1 vssd1 vccd1 vccd1 sky130_ef_sc_hd__decap_12
XFILLER_52_197 vssd1 vssd1 vccd1 vccd1 sky130_ef_sc_hd__decap_12
XFILLER_52_164 vssd1 vssd1 vccd1 vccd1 sky130_fd_sc_hd__decap_4
XFILLER_52_153 vssd1 vssd1 vccd1 vccd1 sky130_fd_sc_hd__decap_8
X_1096__95 vssd1 vssd1 vccd1 vccd1 _1096__95/HI net95 sky130_fd_sc_hd__conb_1
XFILLER_4_249 vssd1 vssd1 vccd1 vccd1 sky130_fd_sc_hd__decap_3
XFILLER_4_227 vssd1 vssd1 vccd1 vccd1 sky130_fd_sc_hd__fill_1
XFILLER_20_65 vssd1 vssd1 vccd1 vccd1 sky130_ef_sc_hd__decap_12
XFILLER_45_51 vssd1 vssd1 vccd1 vccd1 sky130_fd_sc_hd__decap_4
XTAP_348 vssd1 vccd1 sky130_fd_sc_hd__tapvpwrvgnd_1
XTAP_337 vssd1 vccd1 sky130_fd_sc_hd__tapvpwrvgnd_1
XFILLER_6_78 vssd1 vssd1 vccd1 vccd1 sky130_fd_sc_hd__decap_6
X_0521_ _0057_ vssd1 vssd1 vccd1 vccd1 _0271_ sky130_fd_sc_hd__inv_2
XTAP_304 vssd1 vccd1 sky130_fd_sc_hd__tapvpwrvgnd_1
XTAP_315 vssd1 vccd1 sky130_fd_sc_hd__tapvpwrvgnd_1
XTAP_326 vssd1 vccd1 sky130_fd_sc_hd__tapvpwrvgnd_1
XFILLER_66_234 vssd1 vssd1 vccd1 vccd1 sky130_ef_sc_hd__decap_12
XTAP_359 vssd1 vccd1 sky130_fd_sc_hd__tapvpwrvgnd_1
XFILLER_13_3 vssd1 vssd1 vccd1 vccd1 sky130_fd_sc_hd__decap_3
XFILLER_19_161 vssd1 vssd1 vccd1 vccd1 sky130_fd_sc_hd__decap_6
XFILLER_26_109 vssd1 vssd1 vccd1 vccd1 sky130_ef_sc_hd__decap_12
XFILLER_34_197 vssd1 vssd1 vccd1 vccd1 sky130_fd_sc_hd__fill_2
XFILLER_34_153 vssd1 vssd1 vccd1 vccd1 sky130_fd_sc_hd__decap_8
X_1004_ net20 _0274_ vssd1 vssd1 vccd1 vccd1 la1_data_out[3] sky130_fd_sc_hd__ebufn_8
XFILLER_66_17 vssd1 vssd1 vccd1 vccd1 sky130_fd_sc_hd__fill_1
XFILLER_57_201 vssd1 vssd1 vccd1 vccd1 sky130_ef_sc_hd__decap_12
X_0719_ _0161_ _0162_ _0158_ vssd1 vssd1 vccd1 vccd1 _0164_ sky130_fd_sc_hd__and3b_1
XFILLER_82_49 vssd1 vssd1 vccd1 vccd1 sky130_fd_sc_hd__fill_2
XFILLER_57_278 vssd1 vssd1 vccd1 vccd1 sky130_fd_sc_hd__fill_2
XFILLER_25_164 vssd1 vssd1 vccd1 vccd1 sky130_fd_sc_hd__decap_4
XFILLER_40_189 vssd1 vssd1 vccd1 vccd1 sky130_fd_sc_hd__decap_6
XFILLER_31_53 vssd1 vssd1 vccd1 vccd1 sky130_fd_sc_hd__decap_3
XFILLER_63_215 vssd1 vssd1 vccd1 vccd1 sky130_fd_sc_hd__decap_4
XFILLER_56_83 vssd1 vssd1 vccd1 vccd1 sky130_fd_sc_hd__fill_1
XFILLER_48_234 vssd1 vssd1 vccd1 vccd1 sky130_fd_sc_hd__decap_4
XFILLER_71_281 vssd1 vssd1 vccd1 vccd1 sky130_fd_sc_hd__decap_4
XFILLER_63_248 vssd1 vssd1 vccd1 vccd1 sky130_ef_sc_hd__decap_12
XFILLER_16_153 vssd1 vssd1 vccd1 vccd1 sky130_ef_sc_hd__decap_12
XFILLER_16_197 vssd1 vssd1 vccd1 vccd1 sky130_fd_sc_hd__decap_3
X_0504_ _0055_ vssd1 vssd1 vccd1 vccd1 _0340_ sky130_fd_sc_hd__inv_2
XFILLER_39_223 vssd1 vssd1 vccd1 vccd1 sky130_fd_sc_hd__fill_1
XFILLER_39_201 vssd1 vssd1 vccd1 vccd1 sky130_fd_sc_hd__fill_1
XTAP_189 vssd1 vccd1 sky130_fd_sc_hd__tapvpwrvgnd_1
XTAP_167 vssd1 vccd1 sky130_fd_sc_hd__tapvpwrvgnd_1
XTAP_178 vssd1 vccd1 sky130_fd_sc_hd__tapvpwrvgnd_1
XFILLER_39_278 vssd1 vssd1 vccd1 vccd1 sky130_fd_sc_hd__fill_2
XFILLER_22_134 vssd1 vssd1 vccd1 vccd1 sky130_fd_sc_hd__decap_6
X_1066__65 vssd1 vssd1 vccd1 vccd1 _1066__65/HI net65 sky130_fd_sc_hd__conb_1
XFILLER_53_292 vssd1 vssd1 vccd1 vccd1 sky130_fd_sc_hd__decap_6
XFILLER_53_281 vssd1 vssd1 vccd1 vccd1 sky130_fd_sc_hd__decap_8
XFILLER_9_105 vssd1 vssd1 vccd1 vccd1 sky130_fd_sc_hd__decap_6
XFILLER_13_167 vssd1 vssd1 vccd1 vccd1 sky130_fd_sc_hd__fill_1
XFILLER_26_53 vssd1 vssd1 vccd1 vccd1 sky130_ef_sc_hd__decap_12
XFILLER_26_97 vssd1 vssd1 vccd1 vccd1 sky130_ef_sc_hd__decap_12
XFILLER_42_85 vssd1 vssd1 vccd1 vccd1 sky130_ef_sc_hd__decap_12
XFILLER_42_41 vssd1 vssd1 vccd1 vccd1 sky130_ef_sc_hd__decap_12
XFILLER_9_149 vssd1 vssd1 vccd1 vccd1 sky130_ef_sc_hd__decap_12
XFILLER_3_57 vssd1 vssd1 vccd1 vccd1 sky130_fd_sc_hd__fill_2
XFILLER_3_24 vssd1 vssd1 vccd1 vccd1 sky130_fd_sc_hd__decap_4
XFILLER_67_93 vssd1 vssd1 vccd1 vccd1 sky130_ef_sc_hd__decap_12
XFILLER_36_226 vssd1 vssd1 vccd1 vccd1 sky130_fd_sc_hd__decap_4
XFILLER_80_3 vssd1 vssd1 vccd1 vccd1 sky130_fd_sc_hd__fill_2
XFILLER_50_251 vssd1 vssd1 vccd1 vccd1 sky130_fd_sc_hd__fill_1
XFILLER_35_281 vssd1 vssd1 vccd1 vccd1 sky130_fd_sc_hd__fill_2
XFILLER_50_262 vssd1 vssd1 vccd1 vccd1 sky130_fd_sc_hd__decap_4
XFILLER_77_137 vssd1 vssd1 vccd1 vccd1 sky130_fd_sc_hd__decap_4
XFILLER_18_237 vssd1 vssd1 vccd1 vccd1 sky130_fd_sc_hd__decap_4
XFILLER_18_248 vssd1 vssd1 vccd1 vccd1 sky130_fd_sc_hd__decap_4
XFILLER_53_51 vssd1 vssd1 vccd1 vccd1 sky130_fd_sc_hd__decap_4
XFILLER_26_281 vssd1 vssd1 vccd1 vccd1 sky130_fd_sc_hd__fill_2
XFILLER_17_281 vssd1 vssd1 vccd1 vccd1 sky130_ef_sc_hd__decap_12
XFILLER_59_137 vssd1 vssd1 vccd1 vccd1 sky130_ef_sc_hd__decap_12
XFILLER_58_29 vssd1 vssd1 vccd1 vccd1 sky130_fd_sc_hd__fill_2
X_0898_ clknet_2_2__leaf_wb_clk_i _0039_ vssd1 vssd1 vccd1 vccd1 frequency_counter_0.clk_counter\[7\]
+ sky130_fd_sc_hd__dfxtp_1
XFILLER_67_181 vssd1 vssd1 vccd1 vccd1 sky130_fd_sc_hd__decap_4
XFILLER_15_218 vssd1 vssd1 vccd1 vccd1 sky130_fd_sc_hd__decap_6
XFILLER_2_122 vssd1 vssd1 vccd1 vccd1 sky130_fd_sc_hd__decap_6
XFILLER_2_188 vssd1 vssd1 vccd1 vccd1 sky130_fd_sc_hd__decap_8
XFILLER_0_69 vssd1 vssd1 vccd1 vccd1 sky130_ef_sc_hd__decap_12
XFILLER_80_93 vssd1 vssd1 vccd1 vccd1 sky130_fd_sc_hd__decap_4
X_0821_ _0168_ _0173_ _0236_ _0242_ _0241_ vssd1 vssd1 vccd1 vccd1 _0243_ sky130_fd_sc_hd__o221ai_1
XFILLER_14_251 vssd1 vssd1 vccd1 vccd1 sky130_fd_sc_hd__fill_1
XFILLER_14_273 vssd1 vssd1 vccd1 vccd1 sky130_fd_sc_hd__decap_3
X_0752_ frequency_counter_0.seven_segment0.ten_count\[1\] frequency_counter_0.seven_segment0.ten_count\[0\]
+ _0173_ vssd1 vssd1 vccd1 vccd1 _0189_ sky130_fd_sc_hd__a21oi_1
X_1033__49 vssd1 vssd1 vccd1 vccd1 _1033__49/HI net49 sky130_fd_sc_hd__conb_1
XFILLER_43_3 vssd1 vssd1 vccd1 vccd1 sky130_fd_sc_hd__decap_3
X_0683_ frequency_counter_0.update_period\[11\] vssd1 vssd1 vccd1 vccd1 _0128_ sky130_fd_sc_hd__inv_2
XFILLER_49_181 vssd1 vssd1 vccd1 vccd1 sky130_fd_sc_hd__decap_4
X_1097_ net96 _0367_ vssd1 vssd1 vccd1 vccd1 io_oeb[26] sky130_fd_sc_hd__ebufn_8
XFILLER_20_221 vssd1 vssd1 vccd1 vccd1 sky130_ef_sc_hd__decap_12
XFILLER_69_39 vssd1 vssd1 vccd1 vccd1 sky130_ef_sc_hd__decap_12
XFILLER_20_265 vssd1 vssd1 vccd1 vccd1 sky130_fd_sc_hd__decap_8
XFILLER_70_121 vssd1 vssd1 vccd1 vccd1 sky130_ef_sc_hd__decap_12
XFILLER_18_65 vssd1 vssd1 vccd1 vccd1 sky130_ef_sc_hd__decap_12
XFILLER_70_165 vssd1 vssd1 vccd1 vccd1 sky130_ef_sc_hd__decap_12
XFILLER_50_41 vssd1 vssd1 vccd1 vccd1 sky130_ef_sc_hd__decap_12
XFILLER_34_97 vssd1 vssd1 vccd1 vccd1 sky130_ef_sc_hd__decap_12
XFILLER_34_53 vssd1 vssd1 vccd1 vccd1 sky130_ef_sc_hd__decap_12
XFILLER_7_225 vssd1 vssd1 vccd1 vccd1 sky130_ef_sc_hd__decap_12
XFILLER_11_298 vssd1 vssd1 vccd1 vccd1 sky130_fd_sc_hd__fill_1
XTAP_519 vssd1 vccd1 sky130_fd_sc_hd__tapvpwrvgnd_1
XTAP_508 vssd1 vccd1 sky130_fd_sc_hd__tapvpwrvgnd_1
XFILLER_50_85 vssd1 vssd1 vccd1 vccd1 sky130_ef_sc_hd__decap_12
XFILLER_78_265 vssd1 vssd1 vccd1 vccd1 sky130_fd_sc_hd__decap_4
XFILLER_78_221 vssd1 vssd1 vccd1 vccd1 sky130_ef_sc_hd__decap_12
X_1020_ net36 _0290_ vssd1 vssd1 vccd1 vccd1 la1_data_out[19] sky130_fd_sc_hd__ebufn_8
XFILLER_75_93 vssd1 vssd1 vccd1 vccd1 sky130_ef_sc_hd__decap_12
XFILLER_46_162 vssd1 vssd1 vccd1 vccd1 sky130_fd_sc_hd__decap_4
X_0735_ frequency_counter_0.dbg_state\[1\] _0171_ vssd1 vssd1 vccd1 vccd1 _0177_ sky130_fd_sc_hd__and2_1
X_0804_ frequency_counter_0.clk_counter\[10\] _0226_ vssd1 vssd1 vccd1 vccd1 _0228_
+ sky130_fd_sc_hd__and2_1
X_0666_ _0116_ vssd1 vssd1 vccd1 vccd1 _0015_ sky130_fd_sc_hd__clkbuf_1
X_0597_ _0069_ _0063_ vssd1 vssd1 vccd1 vccd1 _0070_ sky130_fd_sc_hd__nor2_1
XFILLER_52_121 vssd1 vssd1 vccd1 vccd1 sky130_ef_sc_hd__decap_12
XFILLER_20_77 vssd1 vssd1 vccd1 vccd1 sky130_fd_sc_hd__decap_6
XFILLER_75_279 vssd1 vssd1 vccd1 vccd1 sky130_fd_sc_hd__fill_1
XFILLER_75_202 vssd1 vssd1 vccd1 vccd1 sky130_ef_sc_hd__decap_12
XFILLER_29_53 vssd1 vssd1 vccd1 vccd1 sky130_fd_sc_hd__decap_3
XFILLER_43_187 vssd1 vssd1 vccd1 vccd1 sky130_ef_sc_hd__decap_12
XFILLER_77_9 vssd1 vssd1 vccd1 vccd1 sky130_fd_sc_hd__fill_1
XTAP_349 vssd1 vccd1 sky130_fd_sc_hd__tapvpwrvgnd_1
XTAP_338 vssd1 vccd1 sky130_fd_sc_hd__tapvpwrvgnd_1
X_0520_ _0057_ vssd1 vssd1 vccd1 vccd1 _0327_ sky130_fd_sc_hd__inv_2
X_1003__19 vssd1 vssd1 vccd1 vccd1 _1003__19/HI net19 sky130_fd_sc_hd__conb_1
XTAP_305 vssd1 vccd1 sky130_fd_sc_hd__tapvpwrvgnd_1
XTAP_316 vssd1 vccd1 sky130_fd_sc_hd__tapvpwrvgnd_1
XTAP_327 vssd1 vccd1 sky130_fd_sc_hd__tapvpwrvgnd_1
XFILLER_66_246 vssd1 vssd1 vccd1 vccd1 sky130_fd_sc_hd__decap_6
XFILLER_34_121 vssd1 vssd1 vccd1 vccd1 sky130_ef_sc_hd__decap_12
X_1003_ net19 _0273_ vssd1 vssd1 vccd1 vccd1 la1_data_out[2] sky130_fd_sc_hd__ebufn_8
XFILLER_34_165 vssd1 vssd1 vccd1 vccd1 sky130_ef_sc_hd__decap_12
X_0718_ frequency_counter_0.clk_counter\[8\] _0156_ _0158_ _0161_ _0162_ vssd1 vssd1
+ vccd1 vccd1 _0163_ sky130_fd_sc_hd__o2111a_1
XFILLER_66_29 vssd1 vssd1 vccd1 vccd1 sky130_ef_sc_hd__decap_12
XFILLER_57_268 vssd1 vssd1 vccd1 vccd1 sky130_fd_sc_hd__fill_1
XFILLER_57_213 vssd1 vssd1 vccd1 vccd1 sky130_fd_sc_hd__decap_4
X_0649_ frequency_counter_0.update_period\[1\] net10 _0102_ vssd1 vssd1 vccd1 vccd1
+ _0105_ sky130_fd_sc_hd__mux2_1
XFILLER_15_55 vssd1 vssd1 vccd1 vccd1 sky130_fd_sc_hd__fill_1
XFILLER_31_21 vssd1 vssd1 vccd1 vccd1 sky130_ef_sc_hd__decap_12
XFILLER_0_220 vssd1 vssd1 vccd1 vccd1 sky130_fd_sc_hd__decap_4
XFILLER_0_253 vssd1 vssd1 vccd1 vccd1 sky130_ef_sc_hd__decap_12
XFILLER_48_213 vssd1 vssd1 vccd1 vccd1 sky130_fd_sc_hd__fill_1
XFILLER_16_121 vssd1 vssd1 vccd1 vccd1 sky130_ef_sc_hd__decap_12
XPHY_160 vssd1 vssd1 vccd1 vccd1 sky130_fd_sc_hd__decap_3
XFILLER_72_83 vssd1 vssd1 vccd1 vccd1 sky130_fd_sc_hd__fill_1
XFILLER_16_165 vssd1 vssd1 vccd1 vccd1 sky130_ef_sc_hd__decap_12
XFILLER_31_113 vssd1 vssd1 vccd1 vccd1 sky130_ef_sc_hd__decap_12
X_0503_ _0055_ vssd1 vssd1 vccd1 vccd1 _0339_ sky130_fd_sc_hd__inv_2
XTAP_168 vssd1 vccd1 sky130_fd_sc_hd__tapvpwrvgnd_1
XTAP_179 vssd1 vccd1 sky130_fd_sc_hd__tapvpwrvgnd_1
XFILLER_22_113 vssd1 vssd1 vccd1 vccd1 sky130_fd_sc_hd__decap_8
XFILLER_22_124 vssd1 vssd1 vccd1 vccd1 sky130_fd_sc_hd__decap_4
XFILLER_7_9 vssd1 vssd1 vccd1 vccd1 sky130_fd_sc_hd__decap_4
XFILLER_42_53 vssd1 vssd1 vccd1 vccd1 sky130_ef_sc_hd__decap_12
XFILLER_13_113 vssd1 vssd1 vccd1 vccd1 sky130_ef_sc_hd__decap_12
XFILLER_26_65 vssd1 vssd1 vccd1 vccd1 sky130_ef_sc_hd__decap_12
XFILLER_42_97 vssd1 vssd1 vccd1 vccd1 sky130_ef_sc_hd__decap_12
XFILLER_36_205 vssd1 vssd1 vccd1 vccd1 sky130_fd_sc_hd__decap_4
XFILLER_73_3 vssd1 vssd1 vccd1 vccd1 sky130_fd_sc_hd__decap_3
XFILLER_27_205 vssd1 vssd1 vccd1 vccd1 sky130_ef_sc_hd__decap_12
X_1039__55 vssd1 vssd1 vccd1 vccd1 _1039__55/HI net55 sky130_fd_sc_hd__conb_1
XFILLER_35_293 vssd1 vssd1 vccd1 vccd1 sky130_fd_sc_hd__decap_6
XFILLER_6_109 vssd1 vssd1 vccd1 vccd1 sky130_ef_sc_hd__decap_12
XFILLER_12_34 vssd1 vssd1 vccd1 vccd1 sky130_ef_sc_hd__decap_12
XFILLER_77_105 vssd1 vssd1 vccd1 vccd1 sky130_fd_sc_hd__decap_6
XFILLER_26_293 vssd1 vssd1 vccd1 vccd1 sky130_fd_sc_hd__decap_6
XFILLER_32_263 vssd1 vssd1 vccd1 vccd1 sky130_ef_sc_hd__decap_12
XFILLER_32_241 vssd1 vssd1 vccd1 vccd1 sky130_fd_sc_hd__decap_8
XFILLER_17_293 vssd1 vssd1 vccd1 vccd1 sky130_fd_sc_hd__decap_6
X_0897_ clknet_2_2__leaf_wb_clk_i _0038_ vssd1 vssd1 vccd1 vccd1 frequency_counter_0.clk_counter\[6\]
+ sky130_fd_sc_hd__dfxtp_1
XFILLER_59_149 vssd1 vssd1 vccd1 vccd1 sky130_fd_sc_hd__decap_6
XFILLER_59_105 vssd1 vssd1 vccd1 vccd1 sky130_fd_sc_hd__decap_6
XFILLER_82_141 vssd1 vssd1 vccd1 vccd1 sky130_ef_sc_hd__decap_12
XFILLER_74_29 vssd1 vssd1 vccd1 vccd1 sky130_ef_sc_hd__decap_12
XFILLER_23_11 vssd1 vssd1 vccd1 vccd1 sky130_ef_sc_hd__decap_12
XFILLER_23_55 vssd1 vssd1 vccd1 vccd1 sky130_fd_sc_hd__fill_1
XFILLER_3_3 vssd1 vssd1 vccd1 vccd1 sky130_fd_sc_hd__decap_4
XFILLER_48_85 vssd1 vssd1 vccd1 vccd1 sky130_ef_sc_hd__decap_12
XFILLER_48_41 vssd1 vssd1 vccd1 vccd1 sky130_ef_sc_hd__decap_12
XFILLER_0_15 vssd1 vssd1 vccd1 vccd1 sky130_fd_sc_hd__fill_1
XFILLER_0_26 vssd1 vssd1 vccd1 vccd1 sky130_fd_sc_hd__fill_2
XFILLER_9_13 vssd1 vssd1 vccd1 vccd1 sky130_fd_sc_hd__decap_8
XFILLER_9_24 vssd1 vssd1 vccd1 vccd1 sky130_ef_sc_hd__decap_12
XFILLER_80_72 vssd1 vssd1 vccd1 vccd1 sky130_fd_sc_hd__fill_1
X_0820_ frequency_counter_0.edge_counter\[0\] _0168_ vssd1 vssd1 vccd1 vccd1 _0242_
+ sky130_fd_sc_hd__xnor2_1
XFILLER_9_57 vssd1 vssd1 vccd1 vccd1 sky130_ef_sc_hd__decap_12
X_0751_ _0187_ _0176_ _0188_ _0083_ vssd1 vssd1 vccd1 vccd1 _0028_ sky130_fd_sc_hd__o211a_1
X_0682_ frequency_counter_0.clk_counter\[10\] vssd1 vssd1 vccd1 vccd1 _0127_ sky130_fd_sc_hd__inv_2
XFILLER_36_3 vssd1 vssd1 vccd1 vccd1 sky130_ef_sc_hd__decap_12
XFILLER_64_163 vssd1 vssd1 vccd1 vccd1 sky130_fd_sc_hd__decap_8
XFILLER_64_141 vssd1 vssd1 vccd1 vccd1 sky130_ef_sc_hd__decap_12
X_1096_ net95 _0366_ vssd1 vssd1 vccd1 vccd1 io_oeb[25] sky130_fd_sc_hd__ebufn_8
X_1009__25 vssd1 vssd1 vccd1 vccd1 _1009__25/HI net25 sky130_fd_sc_hd__conb_1
XFILLER_20_233 vssd1 vssd1 vccd1 vccd1 sky130_ef_sc_hd__decap_12
XFILLER_70_177 vssd1 vssd1 vccd1 vccd1 sky130_fd_sc_hd__fill_2
XFILLER_70_133 vssd1 vssd1 vccd1 vccd1 sky130_fd_sc_hd__decap_6
XFILLER_18_77 vssd1 vssd1 vccd1 vccd1 sky130_fd_sc_hd__decap_6
XFILLER_50_53 vssd1 vssd1 vccd1 vccd1 sky130_ef_sc_hd__decap_12
XFILLER_34_65 vssd1 vssd1 vccd1 vccd1 sky130_ef_sc_hd__decap_12