*SPEF "ieee 1481-1999"
*DESIGN "wrapped_frequency_counter"
*DATE "11:11:11 Fri 11 11, 1111"
*VENDOR "OpenRCX"
*PROGRAM "Parallel Extraction"
*VERSION "1.0"
*DESIGN_FLOW "NAME_SCOPE LOCAL" "PIN_CAP NONE"
*DIVIDER /
*DELIMITER :
*BUS_DELIMITER []
*T_UNIT 1 NS
*C_UNIT 1 PF
*R_UNIT 1 OHM
*L_UNIT 1 HENRY

*NAME_MAP
*1 active
*2 io_in[0]
*3 io_in[10]
*4 io_in[11]
*5 io_in[12]
*6 io_in[13]
*7 io_in[14]
*8 io_in[15]
*9 io_in[16]
*10 io_in[17]
*11 io_in[18]
*12 io_in[19]
*13 io_in[1]
*14 io_in[20]
*15 io_in[21]
*16 io_in[22]
*17 io_in[23]
*18 io_in[24]
*19 io_in[25]
*20 io_in[26]
*21 io_in[27]
*22 io_in[28]
*23 io_in[29]
*24 io_in[2]
*25 io_in[30]
*26 io_in[31]
*27 io_in[32]
*28 io_in[33]
*29 io_in[34]
*30 io_in[35]
*31 io_in[36]
*32 io_in[37]
*33 io_in[3]
*34 io_in[4]
*35 io_in[5]
*36 io_in[6]
*37 io_in[7]
*38 io_in[8]
*39 io_in[9]
*40 io_oeb[0]
*41 io_oeb[10]
*42 io_oeb[11]
*43 io_oeb[12]
*44 io_oeb[13]
*45 io_oeb[14]
*46 io_oeb[15]
*47 io_oeb[16]
*48 io_oeb[17]
*49 io_oeb[18]
*50 io_oeb[19]
*51 io_oeb[1]
*52 io_oeb[20]
*53 io_oeb[21]
*54 io_oeb[22]
*55 io_oeb[23]
*56 io_oeb[24]
*57 io_oeb[25]
*58 io_oeb[26]
*59 io_oeb[27]
*60 io_oeb[28]
*61 io_oeb[29]
*62 io_oeb[2]
*63 io_oeb[30]
*64 io_oeb[31]
*65 io_oeb[32]
*66 io_oeb[33]
*67 io_oeb[34]
*68 io_oeb[35]
*69 io_oeb[36]
*70 io_oeb[37]
*71 io_oeb[3]
*72 io_oeb[4]
*73 io_oeb[5]
*74 io_oeb[6]
*75 io_oeb[7]
*76 io_oeb[8]
*77 io_oeb[9]
*78 io_out[0]
*79 io_out[10]
*80 io_out[11]
*81 io_out[12]
*82 io_out[13]
*83 io_out[14]
*84 io_out[15]
*85 io_out[16]
*86 io_out[17]
*87 io_out[18]
*88 io_out[19]
*89 io_out[1]
*90 io_out[20]
*91 io_out[21]
*92 io_out[22]
*93 io_out[23]
*94 io_out[24]
*95 io_out[25]
*96 io_out[26]
*97 io_out[27]
*98 io_out[28]
*99 io_out[29]
*100 io_out[2]
*101 io_out[30]
*102 io_out[31]
*103 io_out[32]
*104 io_out[33]
*105 io_out[34]
*106 io_out[35]
*107 io_out[36]
*108 io_out[37]
*109 io_out[3]
*110 io_out[4]
*111 io_out[5]
*112 io_out[6]
*113 io_out[7]
*114 io_out[8]
*115 io_out[9]
*116 la1_data_in[0]
*117 la1_data_in[10]
*118 la1_data_in[11]
*119 la1_data_in[12]
*120 la1_data_in[13]
*121 la1_data_in[14]
*122 la1_data_in[15]
*123 la1_data_in[16]
*124 la1_data_in[17]
*125 la1_data_in[18]
*126 la1_data_in[19]
*127 la1_data_in[1]
*128 la1_data_in[20]
*129 la1_data_in[21]
*130 la1_data_in[22]
*131 la1_data_in[23]
*132 la1_data_in[24]
*133 la1_data_in[25]
*134 la1_data_in[26]
*135 la1_data_in[27]
*136 la1_data_in[28]
*137 la1_data_in[29]
*138 la1_data_in[2]
*139 la1_data_in[30]
*140 la1_data_in[31]
*141 la1_data_in[3]
*142 la1_data_in[4]
*143 la1_data_in[5]
*144 la1_data_in[6]
*145 la1_data_in[7]
*146 la1_data_in[8]
*147 la1_data_in[9]
*148 la1_data_out[0]
*149 la1_data_out[10]
*150 la1_data_out[11]
*151 la1_data_out[12]
*152 la1_data_out[13]
*153 la1_data_out[14]
*154 la1_data_out[15]
*155 la1_data_out[16]
*156 la1_data_out[17]
*157 la1_data_out[18]
*158 la1_data_out[19]
*159 la1_data_out[1]
*160 la1_data_out[20]
*161 la1_data_out[21]
*162 la1_data_out[22]
*163 la1_data_out[23]
*164 la1_data_out[24]
*165 la1_data_out[25]
*166 la1_data_out[26]
*167 la1_data_out[27]
*168 la1_data_out[28]
*169 la1_data_out[29]
*170 la1_data_out[2]
*171 la1_data_out[30]
*172 la1_data_out[31]
*173 la1_data_out[3]
*174 la1_data_out[4]
*175 la1_data_out[5]
*176 la1_data_out[6]
*177 la1_data_out[7]
*178 la1_data_out[8]
*179 la1_data_out[9]
*180 la1_oenb[0]
*181 la1_oenb[10]
*182 la1_oenb[11]
*183 la1_oenb[12]
*184 la1_oenb[13]
*185 la1_oenb[14]
*186 la1_oenb[15]
*187 la1_oenb[16]
*188 la1_oenb[17]
*189 la1_oenb[18]
*190 la1_oenb[19]
*191 la1_oenb[1]
*192 la1_oenb[20]
*193 la1_oenb[21]
*194 la1_oenb[22]
*195 la1_oenb[23]
*196 la1_oenb[24]
*197 la1_oenb[25]
*198 la1_oenb[26]
*199 la1_oenb[27]
*200 la1_oenb[28]
*201 la1_oenb[29]
*202 la1_oenb[2]
*203 la1_oenb[30]
*204 la1_oenb[31]
*205 la1_oenb[3]
*206 la1_oenb[4]
*207 la1_oenb[5]
*208 la1_oenb[6]
*209 la1_oenb[7]
*210 la1_oenb[8]
*211 la1_oenb[9]
*214 wb_clk_i
*215 _0000_
*216 _0001_
*217 _0002_
*218 _0003_
*219 _0004_
*220 _0005_
*221 _0006_
*222 _0007_
*223 _0008_
*224 _0009_
*225 _0010_
*226 _0011_
*227 _0012_
*228 _0013_
*229 _0014_
*230 _0015_
*231 _0016_
*232 _0017_
*233 _0018_
*234 _0019_
*235 _0020_
*236 _0021_
*237 _0022_
*238 _0023_
*239 _0024_
*240 _0025_
*241 _0026_
*242 _0027_
*243 _0028_
*244 _0029_
*245 _0030_
*246 _0031_
*247 _0032_
*248 _0033_
*249 _0034_
*250 _0035_
*251 _0036_
*252 _0037_
*253 _0038_
*254 _0039_
*255 _0040_
*256 _0041_
*257 _0042_
*258 _0043_
*259 _0044_
*260 _0045_
*261 _0046_
*262 _0047_
*263 _0048_
*264 _0049_
*265 _0050_
*266 _0051_
*267 _0052_
*268 _0053_
*269 _0054_
*270 _0055_
*271 _0056_
*272 _0057_
*273 _0058_
*274 _0059_
*275 _0060_
*276 _0061_
*277 _0062_
*278 _0063_
*279 _0064_
*280 _0065_
*281 _0066_
*282 _0067_
*283 _0068_
*284 _0069_
*285 _0070_
*286 _0071_
*287 _0072_
*288 _0073_
*289 _0074_
*290 _0075_
*291 _0076_
*292 _0077_
*293 _0078_
*294 _0079_
*295 _0080_
*296 _0081_
*297 _0082_
*298 _0083_
*299 _0084_
*300 _0085_
*301 _0086_
*302 _0087_
*303 _0088_
*304 _0089_
*305 _0090_
*306 _0091_
*307 _0092_
*308 _0093_
*309 _0094_
*310 _0095_
*311 _0096_
*312 _0097_
*313 _0098_
*314 _0099_
*315 _0100_
*316 _0101_
*317 _0102_
*318 _0103_
*319 _0104_
*320 _0105_
*321 _0106_
*322 _0107_
*323 _0108_
*324 _0109_
*325 _0110_
*326 _0111_
*327 _0112_
*328 _0113_
*329 _0114_
*330 _0115_
*331 _0116_
*332 _0117_
*333 _0118_
*334 _0119_
*335 _0120_
*336 _0121_
*337 _0122_
*338 _0123_
*339 _0124_
*340 _0125_
*341 _0126_
*342 _0127_
*343 _0128_
*344 _0129_
*345 _0130_
*346 _0131_
*347 _0132_
*348 _0133_
*349 _0134_
*350 _0135_
*351 _0136_
*352 _0137_
*353 _0138_
*354 _0139_
*355 _0140_
*356 _0141_
*357 _0142_
*358 _0143_
*359 _0144_
*360 _0145_
*361 _0146_
*362 _0147_
*363 _0148_
*364 _0149_
*365 _0150_
*366 _0151_
*367 _0152_
*368 _0153_
*369 _0154_
*370 _0155_
*371 _0156_
*372 _0157_
*373 _0158_
*374 _0159_
*375 _0160_
*376 _0161_
*377 _0162_
*378 _0163_
*379 _0164_
*380 _0165_
*381 _0166_
*382 _0167_
*383 _0168_
*384 _0169_
*385 _0170_
*386 _0171_
*387 _0172_
*388 _0173_
*389 _0174_
*390 _0175_
*391 _0176_
*392 _0177_
*393 _0178_
*394 _0179_
*395 _0180_
*396 _0181_
*397 _0182_
*398 _0183_
*399 _0184_
*400 _0185_
*401 _0186_
*402 _0187_
*403 _0188_
*404 _0189_
*405 _0190_
*406 _0191_
*407 _0192_
*408 _0193_
*409 _0194_
*410 _0195_
*411 _0196_
*412 _0197_
*413 _0198_
*414 _0199_
*415 _0200_
*416 _0201_
*417 _0202_
*418 _0203_
*419 _0204_
*420 _0205_
*421 _0206_
*422 _0207_
*423 _0208_
*424 _0209_
*425 _0210_
*426 _0211_
*427 _0212_
*428 _0213_
*429 _0214_
*430 _0215_
*431 _0216_
*432 _0217_
*433 _0218_
*434 _0219_
*435 _0220_
*436 _0221_
*437 _0222_
*438 _0223_
*439 _0224_
*440 _0225_
*441 _0226_
*442 _0227_
*443 _0228_
*444 _0229_
*445 _0230_
*446 _0231_
*447 _0232_
*448 _0233_
*449 _0234_
*450 _0235_
*451 _0236_
*452 _0237_
*453 _0238_
*454 _0239_
*455 _0240_
*456 _0241_
*457 _0242_
*458 _0243_
*459 _0244_
*460 _0245_
*461 _0246_
*462 _0247_
*463 _0248_
*464 _0249_
*465 _0250_
*466 _0251_
*467 _0252_
*468 _0253_
*469 _0254_
*470 _0255_
*471 _0256_
*472 _0257_
*473 _0258_
*474 _0259_
*475 _0260_
*476 _0261_
*477 _0262_
*478 _0263_
*479 _0264_
*480 _0265_
*481 _0266_
*482 _0267_
*483 _0268_
*484 _0269_
*485 _0270_
*486 _0271_
*487 _0272_
*488 _0273_
*489 _0274_
*490 _0275_
*491 _0276_
*492 _0277_
*493 _0278_
*494 _0279_
*495 _0280_
*496 _0281_
*497 _0282_
*498 _0283_
*499 _0284_
*500 _0285_
*501 _0286_
*502 _0287_
*503 _0288_
*504 _0289_
*505 _0290_
*506 _0291_
*507 _0292_
*508 _0293_
*509 _0294_
*510 _0295_
*511 _0296_
*512 _0297_
*513 _0298_
*514 _0299_
*515 _0300_
*516 _0301_
*517 _0302_
*518 _0303_
*519 _0304_
*520 _0305_
*521 _0306_
*522 _0307_
*523 _0308_
*524 _0309_
*525 _0310_
*526 _0311_
*527 _0312_
*528 _0313_
*529 _0314_
*530 _0315_
*531 _0316_
*532 _0317_
*533 _0318_
*534 _0319_
*535 _0320_
*536 _0321_
*537 _0322_
*538 _0323_
*539 _0324_
*540 _0325_
*541 _0326_
*542 _0327_
*543 _0328_
*544 _0329_
*545 _0330_
*546 _0331_
*547 _0332_
*548 _0333_
*549 _0334_
*550 _0335_
*551 _0336_
*552 _0337_
*553 _0338_
*554 _0339_
*555 _0340_
*556 _0341_
*557 _0342_
*558 _0343_
*559 _0344_
*560 _0345_
*561 _0346_
*562 _0347_
*563 _0348_
*564 _0349_
*565 _0350_
*566 _0351_
*567 _0352_
*568 _0353_
*569 _0354_
*570 _0355_
*571 _0356_
*572 _0357_
*573 _0358_
*574 _0359_
*575 _0360_
*576 _0361_
*577 _0362_
*578 _0363_
*579 _0364_
*580 _0365_
*581 _0366_
*582 _0367_
*583 _0368_
*584 _0369_
*585 _0370_
*586 _0371_
*587 _0372_
*588 _0373_
*589 _0374_
*590 clknet_0_wb_clk_i
*591 clknet_2_0__leaf_wb_clk_i
*592 clknet_2_1__leaf_wb_clk_i
*593 clknet_2_2__leaf_wb_clk_i
*594 clknet_2_3__leaf_wb_clk_i
*595 frequency_counter_0\.clk_counter\[0\]
*596 frequency_counter_0\.clk_counter\[10\]
*597 frequency_counter_0\.clk_counter\[11\]
*598 frequency_counter_0\.clk_counter\[1\]
*599 frequency_counter_0\.clk_counter\[2\]
*600 frequency_counter_0\.clk_counter\[3\]
*601 frequency_counter_0\.clk_counter\[4\]
*602 frequency_counter_0\.clk_counter\[5\]
*603 frequency_counter_0\.clk_counter\[6\]
*604 frequency_counter_0\.clk_counter\[7\]
*605 frequency_counter_0\.clk_counter\[8\]
*606 frequency_counter_0\.clk_counter\[9\]
*607 frequency_counter_0\.digit
*608 frequency_counter_0\.edge_counter\[0\]
*609 frequency_counter_0\.edge_counter\[1\]
*610 frequency_counter_0\.edge_counter\[2\]
*611 frequency_counter_0\.edge_counter\[3\]
*612 frequency_counter_0\.edge_counter\[4\]
*613 frequency_counter_0\.edge_counter\[5\]
*614 frequency_counter_0\.edge_counter\[6\]
*615 frequency_counter_0\.edge_detect0\.q0
*616 frequency_counter_0\.edge_detect0\.q1
*617 frequency_counter_0\.edge_detect0\.q2
*618 frequency_counter_0\.segments\[0\]
*619 frequency_counter_0\.segments\[1\]
*620 frequency_counter_0\.segments\[2\]
*621 frequency_counter_0\.segments\[3\]
*622 frequency_counter_0\.segments\[4\]
*623 frequency_counter_0\.segments\[5\]
*624 frequency_counter_0\.segments\[6\]
*625 frequency_counter_0\.seven_segment0\.load
*626 frequency_counter_0\.seven_segment0\.ten_count\[0\]
*627 frequency_counter_0\.seven_segment0\.ten_count\[1\]
*628 frequency_counter_0\.seven_segment0\.ten_count\[2\]
*629 frequency_counter_0\.seven_segment0\.ten_count\[3\]
*630 frequency_counter_0\.seven_segment0\.ten_count_reg\[0\]
*631 frequency_counter_0\.seven_segment0\.ten_count_reg\[1\]
*632 frequency_counter_0\.seven_segment0\.ten_count_reg\[2\]
*633 frequency_counter_0\.seven_segment0\.ten_count_reg\[3\]
*634 frequency_counter_0\.seven_segment0\.unit_count\[0\]
*635 frequency_counter_0\.seven_segment0\.unit_count\[1\]
*636 frequency_counter_0\.seven_segment0\.unit_count\[2\]
*637 frequency_counter_0\.seven_segment0\.unit_count\[3\]
*638 frequency_counter_0\.seven_segment0\.unit_count_reg\[0\]
*639 frequency_counter_0\.seven_segment0\.unit_count_reg\[1\]
*640 frequency_counter_0\.seven_segment0\.unit_count_reg\[2\]
*641 frequency_counter_0\.seven_segment0\.unit_count_reg\[3\]
*642 frequency_counter_0\.state\[0\]
*643 frequency_counter_0\.state\[1\]
*644 frequency_counter_0\.state\[2\]
*645 frequency_counter_0\.update_period\[0\]
*646 frequency_counter_0\.update_period\[10\]
*647 frequency_counter_0\.update_period\[11\]
*648 frequency_counter_0\.update_period\[1\]
*649 frequency_counter_0\.update_period\[2\]
*650 frequency_counter_0\.update_period\[3\]
*651 frequency_counter_0\.update_period\[4\]
*652 frequency_counter_0\.update_period\[5\]
*653 frequency_counter_0\.update_period\[6\]
*654 frequency_counter_0\.update_period\[7\]
*655 frequency_counter_0\.update_period\[8\]
*656 frequency_counter_0\.update_period\[9\]
*657 net1
*658 net10
*659 net100
*660 net101
*661 net102
*662 net103
*663 net104
*664 net105
*665 net106
*666 net107
*667 net108
*668 net109
*669 net11
*670 net110
*671 net111
*672 net112
*673 net113
*674 net114
*675 net115
*676 net116
*677 net117
*678 net118
*679 net12
*680 net13
*681 net14
*682 net15
*683 net16
*684 net17
*685 net18
*686 net19
*687 net2
*688 net20
*689 net21
*690 net22
*691 net23
*692 net24
*693 net25
*694 net26
*695 net27
*696 net28
*697 net29
*698 net3
*699 net30
*700 net31
*701 net32
*702 net33
*703 net34
*704 net35
*705 net36
*706 net37
*707 net38
*708 net39
*709 net4
*710 net40
*711 net41
*712 net42
*713 net43
*714 net44
*715 net45
*716 net46
*717 net47
*718 net48
*719 net49
*720 net5
*721 net50
*722 net51
*723 net52
*724 net53
*725 net54
*726 net55
*727 net56
*728 net57
*729 net58
*730 net59
*731 net6
*732 net60
*733 net61
*734 net62
*735 net63
*736 net64
*737 net65
*738 net66
*739 net67
*740 net68
*741 net69
*742 net7
*743 net70
*744 net71
*745 net72
*746 net73
*747 net74
*748 net75
*749 net76
*750 net77
*751 net78
*752 net79
*753 net8
*754 net80
*755 net81
*756 net82
*757 net83
*758 net84
*759 net85
*760 net86
*761 net87
*762 net88
*763 net89
*764 net9
*765 net90
*766 net91
*767 net92
*768 net93
*769 net94
*770 net95
*771 net96
*772 net97
*773 net98
*774 net99
*775 FILLER_0_109
*776 FILLER_0_113
*777 FILLER_0_125
*778 FILLER_0_137
*779 FILLER_0_141
*780 FILLER_0_146
*781 FILLER_0_158
*782 FILLER_0_166
*783 FILLER_0_169
*784 FILLER_0_194
*785 FILLER_0_197
*786 FILLER_0_209
*787 FILLER_0_221
*788 FILLER_0_225
*789 FILLER_0_237
*790 FILLER_0_249
*791 FILLER_0_253
*792 FILLER_0_26
*793 FILLER_0_278
*794 FILLER_0_281
*795 FILLER_0_286
*796 FILLER_0_29
*797 FILLER_0_293
*798 FILLER_0_3
*799 FILLER_0_34
*800 FILLER_0_42
*801 FILLER_0_47
*802 FILLER_0_54
*803 FILLER_0_57
*804 FILLER_0_69
*805 FILLER_0_73
*806 FILLER_0_77
*807 FILLER_0_83
*808 FILLER_0_85
*809 FILLER_0_97
*810 FILLER_10_109
*811 FILLER_10_121
*812 FILLER_10_133
*813 FILLER_10_139
*814 FILLER_10_141
*815 FILLER_10_153
*816 FILLER_10_16
*817 FILLER_10_165
*818 FILLER_10_177
*819 FILLER_10_189
*820 FILLER_10_195
*821 FILLER_10_197
*822 FILLER_10_209
*823 FILLER_10_221
*824 FILLER_10_233
*825 FILLER_10_245
*826 FILLER_10_25
*827 FILLER_10_251
*828 FILLER_10_253
*829 FILLER_10_265
*830 FILLER_10_272
*831 FILLER_10_29
*832 FILLER_10_297
*833 FILLER_10_3
*834 FILLER_10_34
*835 FILLER_10_46
*836 FILLER_10_58
*837 FILLER_10_70
*838 FILLER_10_82
*839 FILLER_10_85
*840 FILLER_10_9
*841 FILLER_10_97
*842 FILLER_11_10
*843 FILLER_11_105
*844 FILLER_11_111
*845 FILLER_11_113
*846 FILLER_11_125
*847 FILLER_11_137
*848 FILLER_11_149
*849 FILLER_11_161
*850 FILLER_11_167
*851 FILLER_11_169
*852 FILLER_11_181
*853 FILLER_11_193
*854 FILLER_11_205
*855 FILLER_11_217
*856 FILLER_11_223
*857 FILLER_11_225
*858 FILLER_11_237
*859 FILLER_11_249
*860 FILLER_11_261
*861 FILLER_11_273
*862 FILLER_11_278
*863 FILLER_11_281
*864 FILLER_11_286
*865 FILLER_11_293
*866 FILLER_11_3
*867 FILLER_11_35
*868 FILLER_11_47
*869 FILLER_11_55
*870 FILLER_11_57
*871 FILLER_11_69
*872 FILLER_11_81
*873 FILLER_11_93
*874 FILLER_12_109
*875 FILLER_12_121
*876 FILLER_12_133
*877 FILLER_12_139
*878 FILLER_12_141
*879 FILLER_12_153
*880 FILLER_12_165
*881 FILLER_12_177
*882 FILLER_12_189
*883 FILLER_12_195
*884 FILLER_12_197
*885 FILLER_12_209
*886 FILLER_12_221
*887 FILLER_12_233
*888 FILLER_12_245
*889 FILLER_12_251
*890 FILLER_12_253
*891 FILLER_12_26
*892 FILLER_12_265
*893 FILLER_12_273
*894 FILLER_12_29
*895 FILLER_12_297
*896 FILLER_12_3
*897 FILLER_12_41
*898 FILLER_12_53
*899 FILLER_12_65
*900 FILLER_12_77
*901 FILLER_12_83
*902 FILLER_12_85
*903 FILLER_12_97
*904 FILLER_13_105
*905 FILLER_13_111
*906 FILLER_13_113
*907 FILLER_13_125
*908 FILLER_13_137
*909 FILLER_13_149
*910 FILLER_13_161
*911 FILLER_13_167
*912 FILLER_13_169
*913 FILLER_13_181
*914 FILLER_13_193
*915 FILLER_13_205
*916 FILLER_13_209
*917 FILLER_13_213
*918 FILLER_13_221
*919 FILLER_13_225
*920 FILLER_13_237
*921 FILLER_13_249
*922 FILLER_13_261
*923 FILLER_13_27
*924 FILLER_13_273
*925 FILLER_13_279
*926 FILLER_13_281
*927 FILLER_13_292
*928 FILLER_13_298
*929 FILLER_13_3
*930 FILLER_13_34
*931 FILLER_13_46
*932 FILLER_13_54
*933 FILLER_13_57
*934 FILLER_13_69
*935 FILLER_13_81
*936 FILLER_13_93
*937 FILLER_14_109
*938 FILLER_14_121
*939 FILLER_14_133
*940 FILLER_14_139
*941 FILLER_14_141
*942 FILLER_14_153
*943 FILLER_14_165
*944 FILLER_14_17
*945 FILLER_14_177
*946 FILLER_14_187
*947 FILLER_14_195
*948 FILLER_14_197
*949 FILLER_14_204
*950 FILLER_14_216
*951 FILLER_14_22
*952 FILLER_14_228
*953 FILLER_14_240
*954 FILLER_14_253
*955 FILLER_14_265
*956 FILLER_14_273
*957 FILLER_14_29
*958 FILLER_14_297
*959 FILLER_14_3
*960 FILLER_14_41
*961 FILLER_14_53
*962 FILLER_14_65
*963 FILLER_14_77
*964 FILLER_14_83
*965 FILLER_14_85
*966 FILLER_14_9
*967 FILLER_14_97
*968 FILLER_15_105
*969 FILLER_15_111
*970 FILLER_15_113
*971 FILLER_15_125
*972 FILLER_15_137
*973 FILLER_15_149
*974 FILLER_15_15
*975 FILLER_15_161
*976 FILLER_15_167
*977 FILLER_15_169
*978 FILLER_15_177
*979 FILLER_15_187
*980 FILLER_15_198
*981 FILLER_15_209
*982 FILLER_15_221
*983 FILLER_15_225
*984 FILLER_15_237
*985 FILLER_15_249
*986 FILLER_15_261
*987 FILLER_15_27
*988 FILLER_15_273
*989 FILLER_15_279
*990 FILLER_15_281
*991 FILLER_15_286
*992 FILLER_15_293
*993 FILLER_15_3
*994 FILLER_15_39
*995 FILLER_15_51
*996 FILLER_15_55
*997 FILLER_15_57
*998 FILLER_15_69
*999 FILLER_15_81
*1000 FILLER_15_93
*1001 FILLER_16_10
*1002 FILLER_16_109
*1003 FILLER_16_121
*1004 FILLER_16_133
*1005 FILLER_16_139
*1006 FILLER_16_141
*1007 FILLER_16_153
*1008 FILLER_16_165
*1009 FILLER_16_177
*1010 FILLER_16_183
*1011 FILLER_16_194
*1012 FILLER_16_197
*1013 FILLER_16_209
*1014 FILLER_16_22
*1015 FILLER_16_221
*1016 FILLER_16_233
*1017 FILLER_16_245
*1018 FILLER_16_251
*1019 FILLER_16_253
*1020 FILLER_16_265
*1021 FILLER_16_273
*1022 FILLER_16_29
*1023 FILLER_16_297
*1024 FILLER_16_3
*1025 FILLER_16_43
*1026 FILLER_16_55
*1027 FILLER_16_67
*1028 FILLER_16_79
*1029 FILLER_16_83
*1030 FILLER_16_85
*1031 FILLER_16_97
*1032 FILLER_17_105
*1033 FILLER_17_111
*1034 FILLER_17_113
*1035 FILLER_17_125
*1036 FILLER_17_137
*1037 FILLER_17_149
*1038 FILLER_17_161
*1039 FILLER_17_167
*1040 FILLER_17_169
*1041 FILLER_17_180
*1042 FILLER_17_195
*1043 FILLER_17_207
*1044 FILLER_17_219
*1045 FILLER_17_223
*1046 FILLER_17_225
*1047 FILLER_17_237
*1048 FILLER_17_249
*1049 FILLER_17_261
*1050 FILLER_17_27
*1051 FILLER_17_273
*1052 FILLER_17_279
*1053 FILLER_17_281
*1054 FILLER_17_286
*1055 FILLER_17_298
*1056 FILLER_17_3
*1057 FILLER_17_39
*1058 FILLER_17_51
*1059 FILLER_17_55
*1060 FILLER_17_57
*1061 FILLER_17_69
*1062 FILLER_17_81
*1063 FILLER_17_93
*1064 FILLER_18_109
*1065 FILLER_18_121
*1066 FILLER_18_133
*1067 FILLER_18_139
*1068 FILLER_18_141
*1069 FILLER_18_153
*1070 FILLER_18_165
*1071 FILLER_18_172
*1072 FILLER_18_179
*1073 FILLER_18_191
*1074 FILLER_18_195
*1075 FILLER_18_197
*1076 FILLER_18_209
*1077 FILLER_18_21
*1078 FILLER_18_215
*1079 FILLER_18_220
*1080 FILLER_18_224
*1081 FILLER_18_228
*1082 FILLER_18_240
*1083 FILLER_18_253
*1084 FILLER_18_265
*1085 FILLER_18_27
*1086 FILLER_18_273
*1087 FILLER_18_29
*1088 FILLER_18_297
*1089 FILLER_18_3
*1090 FILLER_18_41
*1091 FILLER_18_53
*1092 FILLER_18_65
*1093 FILLER_18_77
*1094 FILLER_18_83
*1095 FILLER_18_85
*1096 FILLER_18_9
*1097 FILLER_18_97
*1098 FILLER_19_105
*1099 FILLER_19_11
*1100 FILLER_19_111
*1101 FILLER_19_113
*1102 FILLER_19_125
*1103 FILLER_19_137
*1104 FILLER_19_149
*1105 FILLER_19_161
*1106 FILLER_19_167
*1107 FILLER_19_169
*1108 FILLER_19_177
*1109 FILLER_19_185
*1110 FILLER_19_192
*1111 FILLER_19_199
*1112 FILLER_19_212
*1113 FILLER_19_225
*1114 FILLER_19_23
*1115 FILLER_19_238
*1116 FILLER_19_247
*1117 FILLER_19_259
*1118 FILLER_19_267
*1119 FILLER_19_278
*1120 FILLER_19_281
*1121 FILLER_19_287
*1122 FILLER_19_294
*1123 FILLER_19_298
*1124 FILLER_19_3
*1125 FILLER_19_35
*1126 FILLER_19_47
*1127 FILLER_19_55
*1128 FILLER_19_57
*1129 FILLER_19_69
*1130 FILLER_19_7
*1131 FILLER_19_81
*1132 FILLER_19_93
*1133 FILLER_1_10
*1134 FILLER_1_106
*1135 FILLER_1_113
*1136 FILLER_1_136
*1137 FILLER_1_142
*1138 FILLER_1_164
*1139 FILLER_1_169
*1140 FILLER_1_17
*1141 FILLER_1_192
*1142 FILLER_1_196
*1143 FILLER_1_218
*1144 FILLER_1_225
*1145 FILLER_1_24
*1146 FILLER_1_248
*1147 FILLER_1_273
*1148 FILLER_1_279
*1149 FILLER_1_281
*1150 FILLER_1_286
*1151 FILLER_1_293
*1152 FILLER_1_3
*1153 FILLER_1_49
*1154 FILLER_1_55
*1155 FILLER_1_57
*1156 FILLER_1_80
*1157 FILLER_1_84
*1158 FILLER_20_109
*1159 FILLER_20_121
*1160 FILLER_20_133
*1161 FILLER_20_139
*1162 FILLER_20_141
*1163 FILLER_20_153
*1164 FILLER_20_165
*1165 FILLER_20_177
*1166 FILLER_20_190
*1167 FILLER_20_197
*1168 FILLER_20_203
*1169 FILLER_20_213
*1170 FILLER_20_226
*1171 FILLER_20_238
*1172 FILLER_20_249
*1173 FILLER_20_253
*1174 FILLER_20_26
*1175 FILLER_20_260
*1176 FILLER_20_271
*1177 FILLER_20_283
*1178 FILLER_20_29
*1179 FILLER_20_295
*1180 FILLER_20_3
*1181 FILLER_20_41
*1182 FILLER_20_53
*1183 FILLER_20_65
*1184 FILLER_20_77
*1185 FILLER_20_83
*1186 FILLER_20_85
*1187 FILLER_20_97
*1188 FILLER_21_105
*1189 FILLER_21_111
*1190 FILLER_21_113
*1191 FILLER_21_125
*1192 FILLER_21_137
*1193 FILLER_21_14
*1194 FILLER_21_149
*1195 FILLER_21_161
*1196 FILLER_21_166
*1197 FILLER_21_169
*1198 FILLER_21_177
*1199 FILLER_21_181
*1200 FILLER_21_185
*1201 FILLER_21_192
*1202 FILLER_21_198
*1203 FILLER_21_204
*1204 FILLER_21_21
*1205 FILLER_21_211
*1206 FILLER_21_223
*1207 FILLER_21_225
*1208 FILLER_21_233
*1209 FILLER_21_242
*1210 FILLER_21_251
*1211 FILLER_21_258
*1212 FILLER_21_269
*1213 FILLER_21_277
*1214 FILLER_21_28
*1215 FILLER_21_281
*1216 FILLER_21_289
*1217 FILLER_21_294
*1218 FILLER_21_298
*1219 FILLER_21_3
*1220 FILLER_21_40
*1221 FILLER_21_52
*1222 FILLER_21_57
*1223 FILLER_21_69
*1224 FILLER_21_81
*1225 FILLER_21_93
*1226 FILLER_22_109
*1227 FILLER_22_121
*1228 FILLER_22_133
*1229 FILLER_22_139
*1230 FILLER_22_141
*1231 FILLER_22_153
*1232 FILLER_22_161
*1233 FILLER_22_167
*1234 FILLER_22_176
*1235 FILLER_22_183
*1236 FILLER_22_195
*1237 FILLER_22_197
*1238 FILLER_22_202
*1239 FILLER_22_214
*1240 FILLER_22_226
*1241 FILLER_22_238
*1242 FILLER_22_250
*1243 FILLER_22_253
*1244 FILLER_22_26
*1245 FILLER_22_272
*1246 FILLER_22_29
*1247 FILLER_22_297
*1248 FILLER_22_3
*1249 FILLER_22_41
*1250 FILLER_22_53
*1251 FILLER_22_65
*1252 FILLER_22_77
*1253 FILLER_22_83
*1254 FILLER_22_85
*1255 FILLER_22_97
*1256 FILLER_23_105
*1257 FILLER_23_111
*1258 FILLER_23_113
*1259 FILLER_23_125
*1260 FILLER_23_137
*1261 FILLER_23_149
*1262 FILLER_23_15
*1263 FILLER_23_161
*1264 FILLER_23_167
*1265 FILLER_23_169
*1266 FILLER_23_187
*1267 FILLER_23_195
*1268 FILLER_23_213
*1269 FILLER_23_221
*1270 FILLER_23_225
*1271 FILLER_23_236
*1272 FILLER_23_256
*1273 FILLER_23_27
*1274 FILLER_23_276
*1275 FILLER_23_281
*1276 FILLER_23_292
*1277 FILLER_23_298
*1278 FILLER_23_3
*1279 FILLER_23_39
*1280 FILLER_23_51
*1281 FILLER_23_55
*1282 FILLER_23_57
*1283 FILLER_23_69
*1284 FILLER_23_81
*1285 FILLER_23_93
*1286 FILLER_24_103
*1287 FILLER_24_107
*1288 FILLER_24_132
*1289 FILLER_24_14
*1290 FILLER_24_141
*1291 FILLER_24_153
*1292 FILLER_24_165
*1293 FILLER_24_173
*1294 FILLER_24_191
*1295 FILLER_24_195
*1296 FILLER_24_197
*1297 FILLER_24_215
*1298 FILLER_24_239
*1299 FILLER_24_251
*1300 FILLER_24_253
*1301 FILLER_24_26
*1302 FILLER_24_268
*1303 FILLER_24_288
*1304 FILLER_24_29
*1305 FILLER_24_295
*1306 FILLER_24_3
*1307 FILLER_24_41
*1308 FILLER_24_53
*1309 FILLER_24_65
*1310 FILLER_24_77
*1311 FILLER_24_83
*1312 FILLER_24_85
*1313 FILLER_24_97
*1314 FILLER_25_105
*1315 FILLER_25_111
*1316 FILLER_25_113
*1317 FILLER_25_125
*1318 FILLER_25_137
*1319 FILLER_25_149
*1320 FILLER_25_161
*1321 FILLER_25_167
*1322 FILLER_25_169
*1323 FILLER_25_187
*1324 FILLER_25_199
*1325 FILLER_25_207
*1326 FILLER_25_213
*1327 FILLER_25_222
*1328 FILLER_25_225
*1329 FILLER_25_237
*1330 FILLER_25_249
*1331 FILLER_25_261
*1332 FILLER_25_269
*1333 FILLER_25_27
*1334 FILLER_25_276
*1335 FILLER_25_281
*1336 FILLER_25_286
*1337 FILLER_25_297
*1338 FILLER_25_3
*1339 FILLER_25_39
*1340 FILLER_25_51
*1341 FILLER_25_55
*1342 FILLER_25_57
*1343 FILLER_25_69
*1344 FILLER_25_81
*1345 FILLER_25_93
*1346 FILLER_26_10
*1347 FILLER_26_109
*1348 FILLER_26_121
*1349 FILLER_26_133
*1350 FILLER_26_139
*1351 FILLER_26_141
*1352 FILLER_26_153
*1353 FILLER_26_166
*1354 FILLER_26_178
*1355 FILLER_26_190
*1356 FILLER_26_197
*1357 FILLER_26_209
*1358 FILLER_26_22
*1359 FILLER_26_228
*1360 FILLER_26_236
*1361 FILLER_26_246
*1362 FILLER_26_253
*1363 FILLER_26_262
*1364 FILLER_26_272
*1365 FILLER_26_29
*1366 FILLER_26_297
*1367 FILLER_26_3
*1368 FILLER_26_41
*1369 FILLER_26_53
*1370 FILLER_26_65
*1371 FILLER_26_77
*1372 FILLER_26_83
*1373 FILLER_26_85
*1374 FILLER_26_97
*1375 FILLER_27_105
*1376 FILLER_27_111
*1377 FILLER_27_113
*1378 FILLER_27_125
*1379 FILLER_27_137
*1380 FILLER_27_148
*1381 FILLER_27_156
*1382 FILLER_27_16
*1383 FILLER_27_164
*1384 FILLER_27_169
*1385 FILLER_27_181
*1386 FILLER_27_200
*1387 FILLER_27_213
*1388 FILLER_27_221
*1389 FILLER_27_225
*1390 FILLER_27_236
*1391 FILLER_27_248
*1392 FILLER_27_266
*1393 FILLER_27_270
*1394 FILLER_27_274
*1395 FILLER_27_28
*1396 FILLER_27_281
*1397 FILLER_27_287
*1398 FILLER_27_294
*1399 FILLER_27_298
*1400 FILLER_27_3
*1401 FILLER_27_40
*1402 FILLER_27_52
*1403 FILLER_27_57
*1404 FILLER_27_69
*1405 FILLER_27_81
*1406 FILLER_27_9
*1407 FILLER_27_93
*1408 FILLER_28_109
*1409 FILLER_28_121
*1410 FILLER_28_133
*1411 FILLER_28_138
*1412 FILLER_28_141
*1413 FILLER_28_150
*1414 FILLER_28_158
*1415 FILLER_28_166
*1416 FILLER_28_178
*1417 FILLER_28_186
*1418 FILLER_28_194
*1419 FILLER_28_197
*1420 FILLER_28_209
*1421 FILLER_28_213
*1422 FILLER_28_234
*1423 FILLER_28_245
*1424 FILLER_28_251
*1425 FILLER_28_253
*1426 FILLER_28_26
*1427 FILLER_28_260
*1428 FILLER_28_272
*1429 FILLER_28_29
*1430 FILLER_28_297
*1431 FILLER_28_3
*1432 FILLER_28_41
*1433 FILLER_28_53
*1434 FILLER_28_65
*1435 FILLER_28_77
*1436 FILLER_28_83
*1437 FILLER_28_85
*1438 FILLER_28_97
*1439 FILLER_29_105
*1440 FILLER_29_111
*1441 FILLER_29_113
*1442 FILLER_29_130
*1443 FILLER_29_142
*1444 FILLER_29_150
*1445 FILLER_29_158
*1446 FILLER_29_166
*1447 FILLER_29_169
*1448 FILLER_29_176
*1449 FILLER_29_184
*1450 FILLER_29_20
*1451 FILLER_29_206
*1452 FILLER_29_214
*1453 FILLER_29_220
*1454 FILLER_29_225
*1455 FILLER_29_236
*1456 FILLER_29_246
*1457 FILLER_29_254
*1458 FILLER_29_260
*1459 FILLER_29_277
*1460 FILLER_29_281
*1461 FILLER_29_287
*1462 FILLER_29_294
*1463 FILLER_29_298
*1464 FILLER_29_3
*1465 FILLER_29_32
*1466 FILLER_29_44
*1467 FILLER_29_57
*1468 FILLER_29_69
*1469 FILLER_29_8
*1470 FILLER_29_81
*1471 FILLER_29_93
*1472 FILLER_2_106
*1473 FILLER_2_113
*1474 FILLER_2_138
*1475 FILLER_2_141
*1476 FILLER_2_147
*1477 FILLER_2_159
*1478 FILLER_2_166
*1479 FILLER_2_173
*1480 FILLER_2_180
*1481 FILLER_2_187
*1482 FILLER_2_195
*1483 FILLER_2_197
*1484 FILLER_2_202
*1485 FILLER_2_209
*1486 FILLER_2_217
*1487 FILLER_2_223
*1488 FILLER_2_230
*1489 FILLER_2_242
*1490 FILLER_2_246
*1491 FILLER_2_250
*1492 FILLER_2_253
*1493 FILLER_2_258
*1494 FILLER_2_26
*1495 FILLER_2_266
*1496 FILLER_2_288
*1497 FILLER_2_29
*1498 FILLER_2_295
*1499 FILLER_2_3
*1500 FILLER_2_35
*1501 FILLER_2_39
*1502 FILLER_2_64
*1503 FILLER_2_72
*1504 FILLER_2_76
*1505 FILLER_2_85
*1506 FILLER_2_90
*1507 FILLER_2_97
*1508 FILLER_30_10
*1509 FILLER_30_109
*1510 FILLER_30_121
*1511 FILLER_30_125
*1512 FILLER_30_129
*1513 FILLER_30_136
*1514 FILLER_30_141
*1515 FILLER_30_148
*1516 FILLER_30_156
*1517 FILLER_30_165
*1518 FILLER_30_17
*1519 FILLER_30_185
*1520 FILLER_30_192
*1521 FILLER_30_197
*1522 FILLER_30_208
*1523 FILLER_30_230
*1524 FILLER_30_236
*1525 FILLER_30_241
*1526 FILLER_30_249
*1527 FILLER_30_25
*1528 FILLER_30_253
*1529 FILLER_30_262
*1530 FILLER_30_268
*1531 FILLER_30_272
*1532 FILLER_30_29
*1533 FILLER_30_297
*1534 FILLER_30_3
*1535 FILLER_30_41
*1536 FILLER_30_53
*1537 FILLER_30_65
*1538 FILLER_30_77
*1539 FILLER_30_83
*1540 FILLER_30_85
*1541 FILLER_30_97
*1542 FILLER_31_105
*1543 FILLER_31_111
*1544 FILLER_31_113
*1545 FILLER_31_121
*1546 FILLER_31_129
*1547 FILLER_31_140
*1548 FILLER_31_147
*1549 FILLER_31_159
*1550 FILLER_31_166
*1551 FILLER_31_169
*1552 FILLER_31_188
*1553 FILLER_31_196
*1554 FILLER_31_206
*1555 FILLER_31_214
*1556 FILLER_31_219
*1557 FILLER_31_223
*1558 FILLER_31_225
*1559 FILLER_31_237
*1560 FILLER_31_249
*1561 FILLER_31_261
*1562 FILLER_31_27
*1563 FILLER_31_273
*1564 FILLER_31_279
*1565 FILLER_31_281
*1566 FILLER_31_292
*1567 FILLER_31_298
*1568 FILLER_31_3
*1569 FILLER_31_39
*1570 FILLER_31_51
*1571 FILLER_31_55
*1572 FILLER_31_57
*1573 FILLER_31_69
*1574 FILLER_31_81
*1575 FILLER_31_93
*1576 FILLER_32_109
*1577 FILLER_32_121
*1578 FILLER_32_129
*1579 FILLER_32_136
*1580 FILLER_32_141
*1581 FILLER_32_153
*1582 FILLER_32_161
*1583 FILLER_32_169
*1584 FILLER_32_173
*1585 FILLER_32_185
*1586 FILLER_32_193
*1587 FILLER_32_197
*1588 FILLER_32_209
*1589 FILLER_32_221
*1590 FILLER_32_233
*1591 FILLER_32_245
*1592 FILLER_32_251
*1593 FILLER_32_253
*1594 FILLER_32_26
*1595 FILLER_32_262
*1596 FILLER_32_285
*1597 FILLER_32_29
*1598 FILLER_32_294
*1599 FILLER_32_298
*1600 FILLER_32_3
*1601 FILLER_32_41
*1602 FILLER_32_53
*1603 FILLER_32_65
*1604 FILLER_32_77
*1605 FILLER_32_83
*1606 FILLER_32_85
*1607 FILLER_32_97
*1608 FILLER_33_105
*1609 FILLER_33_111
*1610 FILLER_33_113
*1611 FILLER_33_131
*1612 FILLER_33_143
*1613 FILLER_33_153
*1614 FILLER_33_16
*1615 FILLER_33_165
*1616 FILLER_33_169
*1617 FILLER_33_181
*1618 FILLER_33_189
*1619 FILLER_33_194
*1620 FILLER_33_209
*1621 FILLER_33_221
*1622 FILLER_33_225
*1623 FILLER_33_229
*1624 FILLER_33_236
*1625 FILLER_33_251
*1626 FILLER_33_259
*1627 FILLER_33_268
*1628 FILLER_33_28
*1629 FILLER_33_281
*1630 FILLER_33_285
*1631 FILLER_33_289
*1632 FILLER_33_296
*1633 FILLER_33_3
*1634 FILLER_33_40
*1635 FILLER_33_52
*1636 FILLER_33_57
*1637 FILLER_33_69
*1638 FILLER_33_81
*1639 FILLER_33_9
*1640 FILLER_33_93
*1641 FILLER_34_109
*1642 FILLER_34_121
*1643 FILLER_34_133
*1644 FILLER_34_139
*1645 FILLER_34_141
*1646 FILLER_34_149
*1647 FILLER_34_15
*1648 FILLER_34_156
*1649 FILLER_34_160
*1650 FILLER_34_166
*1651 FILLER_34_178
*1652 FILLER_34_186
*1653 FILLER_34_194
*1654 FILLER_34_197
*1655 FILLER_34_201
*1656 FILLER_34_218
*1657 FILLER_34_224
*1658 FILLER_34_241
*1659 FILLER_34_249
*1660 FILLER_34_253
*1661 FILLER_34_261
*1662 FILLER_34_27
*1663 FILLER_34_272
*1664 FILLER_34_29
*1665 FILLER_34_297
*1666 FILLER_34_3