*SPEF "ieee 1481-1999"
*DESIGN "wrapped_frequency_counter"
*DATE "11:11:11 Fri 11 11, 1111"
*VENDOR "OpenRCX"
*PROGRAM "Parallel Extraction"
*VERSION "1.0"
*DESIGN_FLOW "NAME_SCOPE LOCAL" "PIN_CAP NONE"
*DIVIDER /
*DELIMITER :
*BUS_DELIMITER []
*T_UNIT 1 NS
*C_UNIT 1 PF
*R_UNIT 1 OHM
*L_UNIT 1 HENRY

*NAME_MAP
*1 active
*2 io_in[0]
*3 io_in[10]
*4 io_in[11]
*5 io_in[12]
*6 io_in[13]
*7 io_in[14]
*8 io_in[15]
*9 io_in[16]
*10 io_in[17]
*11 io_in[18]
*12 io_in[19]
*13 io_in[1]
*14 io_in[20]
*15 io_in[21]
*16 io_in[22]
*17 io_in[23]
*18 io_in[24]
*19 io_in[25]
*20 io_in[26]
*21 io_in[27]
*22 io_in[28]
*23 io_in[29]
*24 io_in[2]
*25 io_in[30]
*26 io_in[31]
*27 io_in[32]
*28 io_in[33]
*29 io_in[34]
*30 io_in[35]
*31 io_in[36]
*32 io_in[37]
*33 io_in[3]
*34 io_in[4]
*35 io_in[5]
*36 io_in[6]
*37 io_in[7]
*38 io_in[8]
*39 io_in[9]
*40 io_oeb[0]
*41 io_oeb[10]
*42 io_oeb[11]
*43 io_oeb[12]
*44 io_oeb[13]
*45 io_oeb[14]
*46 io_oeb[15]
*47 io_oeb[16]
*48 io_oeb[17]
*49 io_oeb[18]
*50 io_oeb[19]
*51 io_oeb[1]
*52 io_oeb[20]
*53 io_oeb[21]
*54 io_oeb[22]
*55 io_oeb[23]
*56 io_oeb[24]
*57 io_oeb[25]
*58 io_oeb[26]
*59 io_oeb[27]
*60 io_oeb[28]
*61 io_oeb[29]
*62 io_oeb[2]
*63 io_oeb[30]
*64 io_oeb[31]
*65 io_oeb[32]
*66 io_oeb[33]
*67 io_oeb[34]
*68 io_oeb[35]
*69 io_oeb[36]
*70 io_oeb[37]
*71 io_oeb[3]
*72 io_oeb[4]
*73 io_oeb[5]
*74 io_oeb[6]
*75 io_oeb[7]
*76 io_oeb[8]
*77 io_oeb[9]
*78 io_out[0]
*79 io_out[10]
*80 io_out[11]
*81 io_out[12]
*82 io_out[13]
*83 io_out[14]
*84 io_out[15]
*85 io_out[16]
*86 io_out[17]
*87 io_out[18]
*88 io_out[19]
*89 io_out[1]
*90 io_out[20]
*91 io_out[21]
*92 io_out[22]
*93 io_out[23]
*94 io_out[24]
*95 io_out[25]
*96 io_out[26]
*97 io_out[27]
*98 io_out[28]
*99 io_out[29]
*100 io_out[2]
*101 io_out[30]
*102 io_out[31]
*103 io_out[32]
*104 io_out[33]
*105 io_out[34]
*106 io_out[35]
*107 io_out[36]
*108 io_out[37]
*109 io_out[3]
*110 io_out[4]
*111 io_out[5]
*112 io_out[6]
*113 io_out[7]
*114 io_out[8]
*115 io_out[9]
*116 la1_data_in[0]
*117 la1_data_in[10]
*118 la1_data_in[11]
*119 la1_data_in[12]
*120 la1_data_in[13]
*121 la1_data_in[14]
*122 la1_data_in[15]
*123 la1_data_in[16]
*124 la1_data_in[17]
*125 la1_data_in[18]
*126 la1_data_in[19]
*127 la1_data_in[1]
*128 la1_data_in[20]
*129 la1_data_in[21]
*130 la1_data_in[22]
*131 la1_data_in[23]
*132 la1_data_in[24]
*133 la1_data_in[25]
*134 la1_data_in[26]
*135 la1_data_in[27]
*136 la1_data_in[28]
*137 la1_data_in[29]
*138 la1_data_in[2]
*139 la1_data_in[30]
*140 la1_data_in[31]
*141 la1_data_in[3]
*142 la1_data_in[4]
*143 la1_data_in[5]
*144 la1_data_in[6]
*145 la1_data_in[7]
*146 la1_data_in[8]
*147 la1_data_in[9]
*148 la1_data_out[0]
*149 la1_data_out[10]
*150 la1_data_out[11]
*151 la1_data_out[12]
*152 la1_data_out[13]
*153 la1_data_out[14]
*154 la1_data_out[15]
*155 la1_data_out[16]
*156 la1_data_out[17]
*157 la1_data_out[18]
*158 la1_data_out[19]
*159 la1_data_out[1]
*160 la1_data_out[20]
*161 la1_data_out[21]
*162 la1_data_out[22]
*163 la1_data_out[23]
*164 la1_data_out[24]
*165 la1_data_out[25]
*166 la1_data_out[26]
*167 la1_data_out[27]
*168 la1_data_out[28]
*169 la1_data_out[29]
*170 la1_data_out[2]
*171 la1_data_out[30]
*172 la1_data_out[31]
*173 la1_data_out[3]
*174 la1_data_out[4]
*175 la1_data_out[5]
*176 la1_data_out[6]
*177 la1_data_out[7]
*178 la1_data_out[8]
*179 la1_data_out[9]
*180 la1_oenb[0]
*181 la1_oenb[10]
*182 la1_oenb[11]
*183 la1_oenb[12]
*184 la1_oenb[13]
*185 la1_oenb[14]
*186 la1_oenb[15]
*187 la1_oenb[16]
*188 la1_oenb[17]
*189 la1_oenb[18]
*190 la1_oenb[19]
*191 la1_oenb[1]
*192 la1_oenb[20]
*193 la1_oenb[21]
*194 la1_oenb[22]
*195 la1_oenb[23]
*196 la1_oenb[24]
*197 la1_oenb[25]
*198 la1_oenb[26]
*199 la1_oenb[27]
*200 la1_oenb[28]
*201 la1_oenb[29]
*202 la1_oenb[2]
*203 la1_oenb[30]
*204 la1_oenb[31]
*205 la1_oenb[3]
*206 la1_oenb[4]
*207 la1_oenb[5]
*208 la1_oenb[6]
*209 la1_oenb[7]
*210 la1_oenb[8]
*211 la1_oenb[9]
*214 wb_clk_i
*215 _0000_
*216 _0001_
*217 _0002_
*218 _0003_
*219 _0004_
*220 _0005_
*221 _0006_
*222 _0007_
*223 _0008_
*224 _0009_
*225 _0010_
*226 _0011_
*227 _0012_
*228 _0013_
*229 _0014_
*230 _0015_
*231 _0016_
*232 _0017_
*233 _0018_
*234 _0019_
*235 _0020_
*236 _0021_
*237 _0022_
*238 _0023_
*239 _0024_
*240 _0025_
*241 _0026_
*242 _0027_
*243 _0028_
*244 _0029_
*245 _0030_
*246 _0031_
*247 _0032_
*248 _0033_
*249 _0034_
*250 _0035_
*251 _0036_
*252 _0037_
*253 _0038_
*254 _0039_
*255 _0040_
*256 _0041_
*257 _0042_
*258 _0043_
*259 _0044_
*260 _0045_
*261 _0046_
*262 _0047_
*263 _0048_
*264 _0049_
*265 _0050_
*266 _0051_
*267 _0052_
*268 _0053_
*269 _0054_
*270 _0055_
*271 _0056_
*272 _0057_
*273 _0058_
*274 _0059_
*275 _0060_
*276 _0061_
*277 _0062_
*278 _0063_
*279 _0064_
*280 _0065_
*281 _0066_
*282 _0067_
*283 _0068_
*284 _0069_
*285 _0070_
*286 _0071_
*287 _0072_
*288 _0073_
*289 _0074_
*290 _0075_
*291 _0076_
*292 _0077_
*293 _0078_
*294 _0079_
*295 _0080_
*296 _0081_
*297 _0082_
*298 _0083_
*299 _0084_
*300 _0085_
*301 _0086_
*302 _0087_
*303 _0088_
*304 _0089_
*305 _0090_
*306 _0091_
*307 _0092_
*308 _0093_
*309 _0094_
*310 _0095_
*311 _0096_
*312 _0097_
*313 _0098_
*314 _0099_
*315 _0100_
*316 _0101_
*317 _0102_
*318 _0103_
*319 _0104_
*320 _0105_
*321 _0106_
*322 _0107_
*323 _0108_
*324 _0109_
*325 _0110_
*326 _0111_
*327 _0112_
*328 _0113_
*329 _0114_
*330 _0115_
*331 _0116_
*332 _0117_
*333 _0118_
*334 _0119_
*335 _0120_
*336 _0121_
*337 _0122_
*338 _0123_
*339 _0124_
*340 _0125_
*341 _0126_
*342 _0127_
*343 _0128_
*344 _0129_
*345 _0130_
*346 _0131_
*347 _0132_
*348 _0133_
*349 _0134_
*350 _0135_
*351 _0136_
*352 _0137_
*353 _0138_
*354 _0139_
*355 _0140_
*356 _0141_
*357 _0142_
*358 _0143_
*359 _0144_
*360 _0145_
*361 _0146_
*362 _0147_
*363 _0148_
*364 _0149_
*365 _0150_
*366 _0151_
*367 _0152_
*368 _0153_
*369 _0154_
*370 _0155_
*371 _0156_
*372 _0157_
*373 _0158_
*374 _0159_
*375 _0160_
*376 _0161_
*377 _0162_
*378 _0163_
*379 _0164_
*380 _0165_
*381 _0166_
*382 _0167_
*383 _0168_
*384 _0169_
*385 _0170_
*386 _0171_
*387 _0172_
*388 _0173_
*389 _0174_
*390 _0175_
*391 _0176_
*392 _0177_
*393 _0178_
*394 _0179_
*395 _0180_
*396 _0181_
*397 _0182_
*398 _0183_
*399 _0184_
*400 _0185_
*401 _0186_
*402 _0187_
*403 _0188_
*404 _0189_
*405 _0190_
*406 _0191_
*407 _0192_
*408 _0193_
*409 _0194_
*410 _0195_
*411 _0196_
*412 _0197_
*413 _0198_
*414 _0199_
*415 _0200_
*416 _0201_
*417 _0202_
*418 _0203_
*419 _0204_
*420 _0205_
*421 _0206_
*422 _0207_
*423 _0208_
*424 _0209_
*425 _0210_
*426 _0211_
*427 _0212_
*428 _0213_
*429 _0214_
*430 _0215_
*431 _0216_
*432 _0217_
*433 _0218_
*434 _0219_
*435 _0220_
*436 _0221_
*437 _0222_
*438 _0223_
*439 _0224_
*440 _0225_
*441 _0226_
*442 _0227_
*443 _0228_
*444 _0229_
*445 _0230_
*446 _0231_
*447 _0232_
*448 _0233_
*449 _0234_
*450 _0235_
*451 _0236_
*452 _0237_
*453 _0238_
*454 _0239_
*455 _0240_
*456 _0241_
*457 _0242_
*458 _0243_
*459 _0244_
*460 _0245_
*461 _0246_
*462 _0247_
*463 _0248_
*464 _0249_
*465 _0250_
*466 _0251_
*467 _0252_
*468 _0253_
*469 _0254_
*470 _0255_
*471 _0256_
*472 _0257_
*473 _0258_
*474 _0259_
*475 _0260_
*476 _0261_
*477 _0262_
*478 _0263_
*479 _0264_
*480 _0265_
*481 _0266_
*482 _0267_
*483 _0268_
*484 _0269_
*485 _0270_
*486 _0271_
*487 _0272_
*488 _0273_
*489 _0274_
*490 _0275_
*491 _0276_
*492 _0277_
*493 _0278_
*494 _0279_
*495 _0280_
*496 _0281_
*497 _0282_
*498 _0283_
*499 _0284_
*500 _0285_
*501 _0286_
*502 _0287_
*503 _0288_
*504 _0289_
*505 _0290_
*506 _0291_
*507 _0292_
*508 _0293_
*509 _0294_
*510 _0295_
*511 _0296_
*512 _0297_
*513 _0298_
*514 _0299_
*515 _0300_
*516 _0301_
*517 _0302_
*518 _0303_
*519 _0304_
*520 _0305_
*521 _0306_
*522 _0307_
*523 _0308_
*524 _0309_
*525 _0310_
*526 _0311_
*527 _0312_
*528 _0313_
*529 _0314_
*530 _0315_
*531 _0316_
*532 _0317_
*533 _0318_
*534 _0319_
*535 _0320_
*536 _0321_
*537 _0322_
*538 _0323_
*539 _0324_
*540 _0325_
*541 _0326_
*542 _0327_
*543 _0328_
*544 _0329_
*545 _0330_
*546 _0331_
*547 _0332_
*548 _0333_
*549 _0334_
*550 _0335_
*551 _0336_
*552 _0337_
*553 _0338_
*554 _0339_
*555 _0340_
*556 _0341_
*557 _0342_
*558 _0343_
*559 _0344_
*560 _0345_
*561 _0346_
*562 _0347_
*563 _0348_
*564 _0349_
*565 _0350_
*566 _0351_
*567 _0352_
*568 _0353_
*569 _0354_
*570 _0355_
*571 _0356_
*572 _0357_
*573 _0358_
*574 _0359_
*575 _0360_
*576 _0361_
*577 _0362_
*578 _0363_
*579 _0364_
*580 _0365_
*581 _0366_
*582 _0367_
*583 _0368_
*584 _0369_
*585 _0370_
*586 _0371_
*587 _0372_
*588 _0373_
*589 _0374_
*590 _0375_
*591 _0376_
*592 _0377_
*593 _0378_
*594 clknet_0_wb_clk_i
*595 clknet_2_0__leaf_wb_clk_i
*596 clknet_2_1__leaf_wb_clk_i
*597 clknet_2_2__leaf_wb_clk_i
*598 clknet_2_3__leaf_wb_clk_i
*599 frequency_counter_0\.clk_counter\[0\]
*600 frequency_counter_0\.clk_counter\[10\]
*601 frequency_counter_0\.clk_counter\[11\]
*602 frequency_counter_0\.clk_counter\[1\]
*603 frequency_counter_0\.clk_counter\[2\]
*604 frequency_counter_0\.clk_counter\[3\]
*605 frequency_counter_0\.clk_counter\[4\]
*606 frequency_counter_0\.clk_counter\[5\]
*607 frequency_counter_0\.clk_counter\[6\]
*608 frequency_counter_0\.clk_counter\[7\]
*609 frequency_counter_0\.clk_counter\[8\]
*610 frequency_counter_0\.clk_counter\[9\]
*611 frequency_counter_0\.dbg_edge_count\[0\]
*612 frequency_counter_0\.dbg_edge_count\[1\]
*613 frequency_counter_0\.dbg_edge_count\[2\]
*614 frequency_counter_0\.dbg_state\[0\]
*615 frequency_counter_0\.dbg_state\[1\]
*616 frequency_counter_0\.digit
*617 frequency_counter_0\.edge_counter\[0\]
*618 frequency_counter_0\.edge_counter\[1\]
*619 frequency_counter_0\.edge_counter\[2\]
*620 frequency_counter_0\.edge_counter\[3\]
*621 frequency_counter_0\.edge_detect0\.q0
*622 frequency_counter_0\.edge_detect0\.q1
*623 frequency_counter_0\.edge_detect0\.q2
*624 frequency_counter_0\.segments\[0\]
*625 frequency_counter_0\.segments\[1\]
*626 frequency_counter_0\.segments\[2\]
*627 frequency_counter_0\.segments\[3\]
*628 frequency_counter_0\.segments\[4\]
*629 frequency_counter_0\.segments\[5\]
*630 frequency_counter_0\.segments\[6\]
*631 frequency_counter_0\.seven_segment0\.load
*632 frequency_counter_0\.seven_segment0\.ten_count\[0\]
*633 frequency_counter_0\.seven_segment0\.ten_count\[1\]
*634 frequency_counter_0\.seven_segment0\.ten_count\[2\]
*635 frequency_counter_0\.seven_segment0\.ten_count\[3\]
*636 frequency_counter_0\.seven_segment0\.ten_count_reg\[0\]
*637 frequency_counter_0\.seven_segment0\.ten_count_reg\[1\]
*638 frequency_counter_0\.seven_segment0\.ten_count_reg\[2\]
*639 frequency_counter_0\.seven_segment0\.ten_count_reg\[3\]
*640 frequency_counter_0\.seven_segment0\.unit_count\[0\]
*641 frequency_counter_0\.seven_segment0\.unit_count\[1\]
*642 frequency_counter_0\.seven_segment0\.unit_count\[2\]
*643 frequency_counter_0\.seven_segment0\.unit_count\[3\]
*644 frequency_counter_0\.seven_segment0\.unit_count_reg\[0\]
*645 frequency_counter_0\.seven_segment0\.unit_count_reg\[1\]
*646 frequency_counter_0\.seven_segment0\.unit_count_reg\[2\]
*647 frequency_counter_0\.seven_segment0\.unit_count_reg\[3\]
*648 frequency_counter_0\.update_period\[0\]
*649 frequency_counter_0\.update_period\[10\]
*650 frequency_counter_0\.update_period\[11\]
*651 frequency_counter_0\.update_period\[1\]
*652 frequency_counter_0\.update_period\[2\]
*653 frequency_counter_0\.update_period\[3\]
*654 frequency_counter_0\.update_period\[4\]
*655 frequency_counter_0\.update_period\[5\]
*656 frequency_counter_0\.update_period\[6\]
*657 frequency_counter_0\.update_period\[7\]
*658 frequency_counter_0\.update_period\[8\]
*659 frequency_counter_0\.update_period\[9\]
*660 net1
*661 net10
*662 net100
*663 net101
*664 net102
*665 net103
*666 net104
*667 net105
*668 net106
*669 net107
*670 net108
*671 net109
*672 net11
*673 net12
*674 net13
*675 net14
*676 net15
*677 net16
*678 net17
*679 net18
*680 net19
*681 net2
*682 net20
*683 net21
*684 net22
*685 net23
*686 net24
*687 net25
*688 net26
*689 net27
*690 net28
*691 net29
*692 net3
*693 net30
*694 net31
*695 net32
*696 net33
*697 net34
*698 net35
*699 net36
*700 net37
*701 net38
*702 net39
*703 net4
*704 net40
*705 net41
*706 net42
*707 net43
*708 net44
*709 net45
*710 net46
*711 net47
*712 net48
*713 net49
*714 net5
*715 net50
*716 net51
*717 net52
*718 net53
*719 net54
*720 net55
*721 net56
*722 net57
*723 net58
*724 net59
*725 net6
*726 net60
*727 net61
*728 net62
*729 net63
*730 net64
*731 net65
*732 net66
*733 net67
*734 net68
*735 net69
*736 net7
*737 net70
*738 net71
*739 net72
*740 net73
*741 net74
*742 net75
*743 net76
*744 net77
*745 net78
*746 net79
*747 net8
*748 net80
*749 net81
*750 net82
*751 net83
*752 net84
*753 net85
*754 net86
*755 net87
*756 net88
*757 net89
*758 net9
*759 net90
*760 net91
*761 net92
*762 net93
*763 net94
*764 net95
*765 net96
*766 net97
*767 net98
*768 net99
*769 FILLER_0_109
*770 FILLER_0_11
*771 FILLER_0_113
*772 FILLER_0_125
*773 FILLER_0_137
*774 FILLER_0_141
*775 FILLER_0_15
*776 FILLER_0_153
*777 FILLER_0_165
*778 FILLER_0_169
*779 FILLER_0_175
*780 FILLER_0_182
*781 FILLER_0_19
*782 FILLER_0_194
*783 FILLER_0_197
*784 FILLER_0_220
*785 FILLER_0_225
*786 FILLER_0_237
*787 FILLER_0_249
*788 FILLER_0_253
*789 FILLER_0_26
*790 FILLER_0_265
*791 FILLER_0_273
*792 FILLER_0_278
*793 FILLER_0_281
*794 FILLER_0_29
*795 FILLER_0_292
*796 FILLER_0_298
*797 FILLER_0_3
*798 FILLER_0_52
*799 FILLER_0_57
*800 FILLER_0_69
*801 FILLER_0_7
*802 FILLER_0_81
*803 FILLER_0_85
*804 FILLER_0_97
*805 FILLER_10_109
*806 FILLER_10_121
*807 FILLER_10_13
*808 FILLER_10_133
*809 FILLER_10_139
*810 FILLER_10_141
*811 FILLER_10_153
*812 FILLER_10_165
*813 FILLER_10_177
*814 FILLER_10_189
*815 FILLER_10_195
*816 FILLER_10_197
*817 FILLER_10_209
*818 FILLER_10_221
*819 FILLER_10_233
*820 FILLER_10_245
*821 FILLER_10_25
*822 FILLER_10_251
*823 FILLER_10_253
*824 FILLER_10_265
*825 FILLER_10_273
*826 FILLER_10_29
*827 FILLER_10_297
*828 FILLER_10_3
*829 FILLER_10_52
*830 FILLER_10_64
*831 FILLER_10_76
*832 FILLER_10_85
*833 FILLER_10_9
*834 FILLER_10_97
*835 FILLER_11_104
*836 FILLER_11_113
*837 FILLER_11_125
*838 FILLER_11_137
*839 FILLER_11_149
*840 FILLER_11_161
*841 FILLER_11_167
*842 FILLER_11_169
*843 FILLER_11_181
*844 FILLER_11_193
*845 FILLER_11_205
*846 FILLER_11_217
*847 FILLER_11_223
*848 FILLER_11_225
*849 FILLER_11_237
*850 FILLER_11_249
*851 FILLER_11_261
*852 FILLER_11_27
*853 FILLER_11_273
*854 FILLER_11_278
*855 FILLER_11_281
*856 FILLER_11_292
*857 FILLER_11_298
*858 FILLER_11_3
*859 FILLER_11_34
*860 FILLER_11_41
*861 FILLER_11_53
*862 FILLER_11_57
*863 FILLER_11_69
*864 FILLER_11_81
*865 FILLER_11_92
*866 FILLER_12_109
*867 FILLER_12_121
*868 FILLER_12_133
*869 FILLER_12_139
*870 FILLER_12_141
*871 FILLER_12_153
*872 FILLER_12_165
*873 FILLER_12_177
*874 FILLER_12_189
*875 FILLER_12_195
*876 FILLER_12_197
*877 FILLER_12_209
*878 FILLER_12_221
*879 FILLER_12_233
*880 FILLER_12_245
*881 FILLER_12_251
*882 FILLER_12_253
*883 FILLER_12_26
*884 FILLER_12_265
*885 FILLER_12_287
*886 FILLER_12_29
*887 FILLER_12_294
*888 FILLER_12_298
*889 FILLER_12_3
*890 FILLER_12_34
*891 FILLER_12_46
*892 FILLER_12_58
*893 FILLER_12_70
*894 FILLER_12_82
*895 FILLER_12_85
*896 FILLER_12_97
*897 FILLER_13_105
*898 FILLER_13_111
*899 FILLER_13_113
*900 FILLER_13_125
*901 FILLER_13_137
*902 FILLER_13_149
*903 FILLER_13_16
*904 FILLER_13_161
*905 FILLER_13_167
*906 FILLER_13_169
*907 FILLER_13_181
*908 FILLER_13_193
*909 FILLER_13_20
*910 FILLER_13_205
*911 FILLER_13_217
*912 FILLER_13_223
*913 FILLER_13_225
*914 FILLER_13_237
*915 FILLER_13_249
*916 FILLER_13_261
*917 FILLER_13_267
*918 FILLER_13_271
*919 FILLER_13_279
*920 FILLER_13_281
*921 FILLER_13_287
*922 FILLER_13_291
*923 FILLER_13_3
*924 FILLER_13_42
*925 FILLER_13_54
*926 FILLER_13_57
*927 FILLER_13_69
*928 FILLER_13_81
*929 FILLER_13_9
*930 FILLER_13_93
*931 FILLER_14_10
*932 FILLER_14_109
*933 FILLER_14_121
*934 FILLER_14_133
*935 FILLER_14_139
*936 FILLER_14_141
*937 FILLER_14_153
*938 FILLER_14_165
*939 FILLER_14_177
*940 FILLER_14_18
*941 FILLER_14_189
*942 FILLER_14_195
*943 FILLER_14_197
*944 FILLER_14_209
*945 FILLER_14_221
*946 FILLER_14_233
*947 FILLER_14_24
*948 FILLER_14_245
*949 FILLER_14_251
*950 FILLER_14_253
*951 FILLER_14_265
*952 FILLER_14_273
*953 FILLER_14_29
*954 FILLER_14_297
*955 FILLER_14_3
*956 FILLER_14_41
*957 FILLER_14_53
*958 FILLER_14_65
*959 FILLER_14_77
*960 FILLER_14_83
*961 FILLER_14_85
*962 FILLER_14_97
*963 FILLER_15_105
*964 FILLER_15_111
*965 FILLER_15_113
*966 FILLER_15_125
*967 FILLER_15_137
*968 FILLER_15_149
*969 FILLER_15_15
*970 FILLER_15_161
*971 FILLER_15_167
*972 FILLER_15_169
*973 FILLER_15_181
*974 FILLER_15_193
*975 FILLER_15_205
*976 FILLER_15_218
*977 FILLER_15_225
*978 FILLER_15_236
*979 FILLER_15_248
*980 FILLER_15_260
*981 FILLER_15_27
*982 FILLER_15_272
*983 FILLER_15_278
*984 FILLER_15_281
*985 FILLER_15_286
*986 FILLER_15_290
*987 FILLER_15_294
*988 FILLER_15_298
*989 FILLER_15_3
*990 FILLER_15_39
*991 FILLER_15_51
*992 FILLER_15_55
*993 FILLER_15_57
*994 FILLER_15_69
*995 FILLER_15_81
*996 FILLER_15_93
*997 FILLER_16_109
*998 FILLER_16_121
*999 FILLER_16_133
*1000 FILLER_16_139
*1001 FILLER_16_141
*1002 FILLER_16_153
*1003 FILLER_16_16
*1004 FILLER_16_165
*1005 FILLER_16_177
*1006 FILLER_16_189
*1007 FILLER_16_195
*1008 FILLER_16_197
*1009 FILLER_16_205
*1010 FILLER_16_226
*1011 FILLER_16_233
*1012 FILLER_16_245
*1013 FILLER_16_251
*1014 FILLER_16_253
*1015 FILLER_16_262
*1016 FILLER_16_274
*1017 FILLER_16_29
*1018 FILLER_16_297
*1019 FILLER_16_3
*1020 FILLER_16_41
*1021 FILLER_16_53
*1022 FILLER_16_65
*1023 FILLER_16_77
*1024 FILLER_16_83
*1025 FILLER_16_85
*1026 FILLER_16_9
*1027 FILLER_16_97
*1028 FILLER_17_105
*1029 FILLER_17_111
*1030 FILLER_17_113
*1031 FILLER_17_125
*1032 FILLER_17_137
*1033 FILLER_17_149
*1034 FILLER_17_161
*1035 FILLER_17_167
*1036 FILLER_17_169
*1037 FILLER_17_181
*1038 FILLER_17_193
*1039 FILLER_17_204
*1040 FILLER_17_219
*1041 FILLER_17_223
*1042 FILLER_17_225
*1043 FILLER_17_235
*1044 FILLER_17_247
*1045 FILLER_17_258
*1046 FILLER_17_265
*1047 FILLER_17_27
*1048 FILLER_17_277
*1049 FILLER_17_281
*1050 FILLER_17_293
*1051 FILLER_17_3
*1052 FILLER_17_39
*1053 FILLER_17_51
*1054 FILLER_17_55
*1055 FILLER_17_57
*1056 FILLER_17_69
*1057 FILLER_17_81
*1058 FILLER_17_93
*1059 FILLER_18_109
*1060 FILLER_18_121
*1061 FILLER_18_133
*1062 FILLER_18_139
*1063 FILLER_18_141
*1064 FILLER_18_15
*1065 FILLER_18_153
*1066 FILLER_18_165
*1067 FILLER_18_177
*1068 FILLER_18_189
*1069 FILLER_18_195
*1070 FILLER_18_197
*1071 FILLER_18_202
*1072 FILLER_18_208
*1073 FILLER_18_218
*1074 FILLER_18_225
*1075 FILLER_18_237
*1076 FILLER_18_248
*1077 FILLER_18_253
*1078 FILLER_18_263
*1079 FILLER_18_27
*1080 FILLER_18_271
*1081 FILLER_18_275
*1082 FILLER_18_29
*1083 FILLER_18_297
*1084 FILLER_18_3
*1085 FILLER_18_41
*1086 FILLER_18_53
*1087 FILLER_18_65
*1088 FILLER_18_77
*1089 FILLER_18_83
*1090 FILLER_18_85
*1091 FILLER_18_97
*1092 FILLER_19_105
*1093 FILLER_19_111
*1094 FILLER_19_113
*1095 FILLER_19_12
*1096 FILLER_19_125
*1097 FILLER_19_137
*1098 FILLER_19_149
*1099 FILLER_19_161
*1100 FILLER_19_167
*1101 FILLER_19_169
*1102 FILLER_19_181
*1103 FILLER_19_193
*1104 FILLER_19_202
*1105 FILLER_19_214
*1106 FILLER_19_222
*1107 FILLER_19_225
*1108 FILLER_19_236
*1109 FILLER_19_24
*1110 FILLER_19_248
*1111 FILLER_19_258
*1112 FILLER_19_270
*1113 FILLER_19_278
*1114 FILLER_19_281
*1115 FILLER_19_287
*1116 FILLER_19_294
*1117 FILLER_19_298
*1118 FILLER_19_3
*1119 FILLER_19_36
*1120 FILLER_19_48
*1121 FILLER_19_57
*1122 FILLER_19_69
*1123 FILLER_19_81
*1124 FILLER_19_93
*1125 FILLER_1_109
*1126 FILLER_1_113
*1127 FILLER_1_125
*1128 FILLER_1_130
*1129 FILLER_1_138
*1130 FILLER_1_161
*1131 FILLER_1_167
*1132 FILLER_1_169
*1133 FILLER_1_192
*1134 FILLER_1_217
*1135 FILLER_1_223
*1136 FILLER_1_225
*1137 FILLER_1_237
*1138 FILLER_1_249
*1139 FILLER_1_278
*1140 FILLER_1_28
*1141 FILLER_1_281
*1142 FILLER_1_286
*1143 FILLER_1_290
*1144 FILLER_1_294
*1145 FILLER_1_298
*1146 FILLER_1_3
*1147 FILLER_1_32
*1148 FILLER_1_54
*1149 FILLER_1_57
*1150 FILLER_1_84
*1151 FILLER_20_108
*1152 FILLER_20_120
*1153 FILLER_20_132
*1154 FILLER_20_141
*1155 FILLER_20_146
*1156 FILLER_20_153
*1157 FILLER_20_165
*1158 FILLER_20_173
*1159 FILLER_20_185
*1160 FILLER_20_193
*1161 FILLER_20_197
*1162 FILLER_20_209
*1163 FILLER_20_221
*1164 FILLER_20_233
*1165 FILLER_20_245
*1166 FILLER_20_251
*1167 FILLER_20_253
*1168 FILLER_20_26
*1169 FILLER_20_265
*1170 FILLER_20_273
*1171 FILLER_20_29
*1172 FILLER_20_297
*1173 FILLER_20_3
*1174 FILLER_20_41
*1175 FILLER_20_53
*1176 FILLER_20_65
*1177 FILLER_20_77
*1178 FILLER_20_83
*1179 FILLER_20_85
*1180 FILLER_20_96
*1181 FILLER_21_110
*1182 FILLER_21_113
*1183 FILLER_21_136
*1184 FILLER_21_142
*1185 FILLER_21_150
*1186 FILLER_21_159
*1187 FILLER_21_16
*1188 FILLER_21_166
*1189 FILLER_21_169
*1190 FILLER_21_180
*1191 FILLER_21_202
*1192 FILLER_21_214
*1193 FILLER_21_222
*1194 FILLER_21_225
*1195 FILLER_21_243
*1196 FILLER_21_267
*1197 FILLER_21_279
*1198 FILLER_21_28
*1199 FILLER_21_281
*1200 FILLER_21_286
*1201 FILLER_21_297
*1202 FILLER_21_3
*1203 FILLER_21_40
*1204 FILLER_21_52
*1205 FILLER_21_57
*1206 FILLER_21_69
*1207 FILLER_21_77
*1208 FILLER_21_9
*1209 FILLER_21_99
*1210 FILLER_22_113
*1211 FILLER_22_124
*1212 FILLER_22_134
*1213 FILLER_22_141
*1214 FILLER_22_151
*1215 FILLER_22_155
*1216 FILLER_22_162
*1217 FILLER_22_170
*1218 FILLER_22_187
*1219 FILLER_22_194
*1220 FILLER_22_197
*1221 FILLER_22_215
*1222 FILLER_22_235
*1223 FILLER_22_247
*1224 FILLER_22_251
*1225 FILLER_22_253
*1226 FILLER_22_26
*1227 FILLER_22_272
*1228 FILLER_22_29
*1229 FILLER_22_297
*1230 FILLER_22_3
*1231 FILLER_22_41
*1232 FILLER_22_53
*1233 FILLER_22_65
*1234 FILLER_22_77
*1235 FILLER_22_82
*1236 FILLER_22_85
*1237 FILLER_22_91
*1238 FILLER_23_105
*1239 FILLER_23_11
*1240 FILLER_23_111
*1241 FILLER_23_113
*1242 FILLER_23_125
*1243 FILLER_23_131
*1244 FILLER_23_137
*1245 FILLER_23_141
*1246 FILLER_23_146
*1247 FILLER_23_154
*1248 FILLER_23_166
*1249 FILLER_23_169
*1250 FILLER_23_174
*1251 FILLER_23_186
*1252 FILLER_23_194
*1253 FILLER_23_211
*1254 FILLER_23_223
*1255 FILLER_23_225
*1256 FILLER_23_23
*1257 FILLER_23_231
*1258 FILLER_23_248
*1259 FILLER_23_260
*1260 FILLER_23_272
*1261 FILLER_23_281
*1262 FILLER_23_287
*1263 FILLER_23_294
*1264 FILLER_23_298
*1265 FILLER_23_3
*1266 FILLER_23_35
*1267 FILLER_23_47
*1268 FILLER_23_55
*1269 FILLER_23_57
*1270 FILLER_23_69
*1271 FILLER_23_7
*1272 FILLER_23_81
*1273 FILLER_23_93
*1274 FILLER_24_109
*1275 FILLER_24_121
*1276 FILLER_24_133
*1277 FILLER_24_138
*1278 FILLER_24_141
*1279 FILLER_24_148
*1280 FILLER_24_156
*1281 FILLER_24_163
*1282 FILLER_24_175
*1283 FILLER_24_187
*1284 FILLER_24_195
*1285 FILLER_24_197
*1286 FILLER_24_205
*1287 FILLER_24_21
*1288 FILLER_24_215
*1289 FILLER_24_228
*1290 FILLER_24_240
*1291 FILLER_24_253
*1292 FILLER_24_261
*1293 FILLER_24_27
*1294 FILLER_24_272
*1295 FILLER_24_29
*1296 FILLER_24_297
*1297 FILLER_24_3
*1298 FILLER_24_41
*1299 FILLER_24_53
*1300 FILLER_24_65
*1301 FILLER_24_77
*1302 FILLER_24_83
*1303 FILLER_24_85
*1304 FILLER_24_9
*1305 FILLER_24_97
*1306 FILLER_25_105
*1307 FILLER_25_111
*1308 FILLER_25_113
*1309 FILLER_25_125
*1310 FILLER_25_137
*1311 FILLER_25_145
*1312 FILLER_25_157
*1313 FILLER_25_164
*1314 FILLER_25_169
*1315 FILLER_25_181
*1316 FILLER_25_193
*1317 FILLER_25_214
*1318 FILLER_25_222
*1319 FILLER_25_225
*1320 FILLER_25_236
*1321 FILLER_25_248
*1322 FILLER_25_254
*1323 FILLER_25_258
*1324 FILLER_25_27
*1325 FILLER_25_278
*1326 FILLER_25_281
*1327 FILLER_25_285
*1328 FILLER_25_289
*1329 FILLER_25_296
*1330 FILLER_25_3
*1331 FILLER_25_39
*1332 FILLER_25_51
*1333 FILLER_25_55
*1334 FILLER_25_57
*1335 FILLER_25_69
*1336 FILLER_25_81
*1337 FILLER_25_93
*1338 FILLER_26_109
*1339 FILLER_26_12
*1340 FILLER_26_121
*1341 FILLER_26_129
*1342 FILLER_26_138
*1343 FILLER_26_141
*1344 FILLER_26_153
*1345 FILLER_26_165
*1346 FILLER_26_187
*1347 FILLER_26_194
*1348 FILLER_26_197
*1349 FILLER_26_203
*1350 FILLER_26_211
*1351 FILLER_26_222
*1352 FILLER_26_24
*1353 FILLER_26_242
*1354 FILLER_26_249
*1355 FILLER_26_253
*1356 FILLER_26_259
*1357 FILLER_26_263
*1358 FILLER_26_269
*1359 FILLER_26_281
*1360 FILLER_26_286
*1361 FILLER_26_29
*1362 FILLER_26_293
*1363 FILLER_26_3
*1364 FILLER_26_41
*1365 FILLER_26_53
*1366 FILLER_26_65
*1367 FILLER_26_77
*1368 FILLER_26_83
*1369 FILLER_26_85
*1370 FILLER_26_97
*1371 FILLER_27_105
*1372 FILLER_27_11
*1373 FILLER_27_111
*1374 FILLER_27_113
*1375 FILLER_27_125
*1376 FILLER_27_137
*1377 FILLER_27_149
*1378 FILLER_27_157
*1379 FILLER_27_165
*1380 FILLER_27_169
*1381 FILLER_27_174
*1382 FILLER_27_180
*1383 FILLER_27_184
*1384 FILLER_27_196
*1385 FILLER_27_205
*1386 FILLER_27_217
*1387 FILLER_27_223
*1388 FILLER_27_225
*1389 FILLER_27_23
*1390 FILLER_27_232
*1391 FILLER_27_239
*1392 FILLER_27_243
*1393 FILLER_27_261
*1394 FILLER_27_271
*1395 FILLER_27_278
*1396 FILLER_27_281
*1397 FILLER_27_292
*1398 FILLER_27_298
*1399 FILLER_27_3
*1400 FILLER_27_35
*1401 FILLER_27_47
*1402 FILLER_27_55
*1403 FILLER_27_57
*1404 FILLER_27_69
*1405 FILLER_27_7
*1406 FILLER_27_81
*1407 FILLER_27_93
*1408 FILLER_28_109
*1409 FILLER_28_121
*1410 FILLER_28_133
*1411 FILLER_28_139
*1412 FILLER_28_141
*1413 FILLER_28_153
*1414 FILLER_28_164
*1415 FILLER_28_170
*1416 FILLER_28_178
*1417 FILLER_28_193
*1418 FILLER_28_197
*1419 FILLER_28_203
*1420 FILLER_28_215
*1421 FILLER_28_227
*1422 FILLER_28_235
*1423 FILLER_28_244
*1424 FILLER_28_253
*1425 FILLER_28_26
*1426 FILLER_28_272
*1427 FILLER_28_29
*1428 FILLER_28_297
*1429 FILLER_28_3
*1430 FILLER_28_41
*1431 FILLER_28_53
*1432 FILLER_28_65
*1433 FILLER_28_77
*1434 FILLER_28_83
*1435 FILLER_28_85
*1436 FILLER_28_97
*1437 FILLER_29_105
*1438 FILLER_29_111
*1439 FILLER_29_113
*1440 FILLER_29_125
*1441 FILLER_29_137
*1442 FILLER_29_149
*1443 FILLER_29_157
*1444 FILLER_29_163
*1445 FILLER_29_167
*1446 FILLER_29_169
*1447 FILLER_29_180
*1448 FILLER_29_206
*1449 FILLER_29_21
*1450 FILLER_29_219
*1451 FILLER_29_223
*1452 FILLER_29_225
*1453 FILLER_29_233
*1454 FILLER_29_238
*1455 FILLER_29_262
*1456 FILLER_29_274
*1457 FILLER_29_281
*1458 FILLER_29_288
*1459 FILLER_29_295
*1460 FILLER_29_3
*1461 FILLER_29_33
*1462 FILLER_29_45
*1463 FILLER_29_53
*1464 FILLER_29_57
*1465 FILLER_29_69
*1466 FILLER_29_81
*1467 FILLER_29_9
*1468 FILLER_29_93
*1469 FILLER_2_122
*1470 FILLER_2_131
*1471 FILLER_2_138
*1472 FILLER_2_141
*1473 FILLER_2_146
*1474 FILLER_2_158
*1475 FILLER_2_165
*1476 FILLER_2_172
*1477 FILLER_2_181
*1478 FILLER_2_188
*1479 FILLER_2_197
*1480 FILLER_2_202
*1481 FILLER_2_208
*1482 FILLER_2_230
*1483 FILLER_2_242
*1484 FILLER_2_250
*1485 FILLER_2_253
*1486 FILLER_2_26
*1487 FILLER_2_265
*1488 FILLER_2_272
*1489 FILLER_2_29
*1490 FILLER_2_297
*1491 FILLER_2_3
*1492 FILLER_2_36
*1493 FILLER_2_42
*1494 FILLER_2_46
*1495 FILLER_2_71
*1496 FILLER_2_78
*1497 FILLER_2_85
*1498 FILLER_2_90
*1499 FILLER_2_97
*1500 FILLER_30_109
*1501 FILLER_30_121
*1502 FILLER_30_133
*1503 FILLER_30_139
*1504 FILLER_30_141
*1505 FILLER_30_153
*1506 FILLER_30_165
*1507 FILLER_30_178
*1508 FILLER_30_185
*1509 FILLER_30_192
*1510 FILLER_30_197
*1511 FILLER_30_20
*1512 FILLER_30_202
*1513 FILLER_30_231
*1514 FILLER_30_239
*1515 FILLER_30_247
*1516 FILLER_30_251
*1517 FILLER_30_253
*1518 FILLER_30_259
*1519 FILLER_30_271
*1520 FILLER_30_29
*1521 FILLER_30_290
*1522 FILLER_30_297
*1523 FILLER_30_3
*1524 FILLER_30_41
*1525 FILLER_30_53
*1526 FILLER_30_65
*1527 FILLER_30_77
*1528 FILLER_30_8
*1529 FILLER_30_83
*1530 FILLER_30_85
*1531 FILLER_30_97
*1532 FILLER_31_105
*1533 FILLER_31_111
*1534 FILLER_31_113
*1535 FILLER_31_125
*1536 FILLER_31_137
*1537 FILLER_31_149
*1538 FILLER_31_161
*1539 FILLER_31_166
*1540 FILLER_31_169
*1541 FILLER_31_175
*1542 FILLER_31_181
*1543 FILLER_31_187
*1544 FILLER_31_198
*1545 FILLER_31_208
*1546 FILLER_31_21
*1547 FILLER_31_215
*1548 FILLER_31_222
*1549 FILLER_31_225
*1550 FILLER_31_244
*1551 FILLER_31_256
*1552 FILLER_31_267
*1553 FILLER_31_279
*1554 FILLER_31_281
*1555 FILLER_31_287
*1556 FILLER_31_294
*1557 FILLER_31_298
*1558 FILLER_31_3
*1559 FILLER_31_33
*1560 FILLER_31_45
*1561 FILLER_31_53
*1562 FILLER_31_57
*1563 FILLER_31_69
*1564 FILLER_31_81
*1565 FILLER_31_9
*1566 FILLER_31_93
*1567 FILLER_32_109
*1568 FILLER_32_121
*1569 FILLER_32_133
*1570 FILLER_32_139
*1571 FILLER_32_141
*1572 FILLER_32_162
*1573 FILLER_32_174
*1574 FILLER_32_186
*1575 FILLER_32_194
*1576 FILLER_32_197
*1577 FILLER_32_209
*1578 FILLER_32_229
*1579 FILLER_32_241
*1580 FILLER_32_249
*1581 FILLER_32_253
*1582 FILLER_32_26
*1583 FILLER_32_263
*1584 FILLER_32_275
*1585 FILLER_32_29
*1586 FILLER_32_297
*1587 FILLER_32_3
*1588 FILLER_32_41
*1589 FILLER_32_53
*1590 FILLER_32_65
*1591 FILLER_32_77
*1592 FILLER_32_83
*1593 FILLER_32_85
*1594 FILLER_32_97
*1595 FILLER_33_10
*1596 FILLER_33_105
*1597 FILLER_33_111
*1598 FILLER_33_113
*1599 FILLER_33_125
*1600 FILLER_33_137
*1601 FILLER_33_149
*1602 FILLER_33_155
*1603 FILLER_33_161
*1604 FILLER_33_167
*1605 FILLER_33_169
*1606 FILLER_33_187
*1607 FILLER_33_195
*1608 FILLER_33_213
*1609 FILLER_33_22
*1610 FILLER_33_221
*1611 FILLER_33_225
*1612 FILLER_33_237
*1613 FILLER_33_249
*1614 FILLER_33_261
*1615 FILLER_33_278
*1616 FILLER_33_281
*1617 FILLER_33_287
*1618 FILLER_33_294
*1619 FILLER_33_298
*1620 FILLER_33_3
*1621 FILLER_33_34
*1622 FILLER_33_46
*1623 FILLER_33_54
*1624 FILLER_33_57
*1625 FILLER_33_69
*1626 FILLER_33_81
*1627 FILLER_33_93
*1628 FILLER_34_109
*1629 FILLER_34_121
*1630 FILLER_34_133
*1631 FILLER_34_139
*1632 FILLER_34_141
*1633 FILLER_34_15
*1634 FILLER_34_153
*1635 FILLER_34_161
*1636 FILLER_34_165
*1637 FILLER_34_177
*1638 FILLER_34_189
*1639 FILLER_34_194
*1640 FILLER_34_197
*1641 FILLER_34_204
*1642 FILLER_34_217
*1643 FILLER_34_225
*1644 FILLER_34_243
*1645 FILLER_34_251
*1646 FILLER_34_253
*1647 FILLER_34_265
*1648 FILLER_34_27
*1649 FILLER_34_273
*1650 FILLER_34_29
*1651 FILLER_34_297
*1652 FILLER_34_3
*1653 FILLER_34_41
*1654 FILLER_34_53
*1655 FILLER_34_65
*1656 FILLER_34_77
*1657 FILLER_34_83
*1658 FILLER_34_85
*1659 FILLER_34_97
*1660 FILLER_35_105
*1661 FILLER_35_111
*1662 FILLER_35_113
*1663 FILLER_35_125
*1664 FILLER_35_137
*1665 FILLER_35_149